<?xml version="1.0" encoding="UTF-8"?>

<!-- generated on 2026-03-27 12:44:32.315035 by Eclipse SUMO randomTrips.py v0.0.0
<configuration>
    <net-file value="/Users/karimboubouh/Workspace/R/sumo/scenarios/sheikh_zayed_road/network.net.xml"/>
    <output-trip-file value="/Users/karimboubouh/Workspace/R/sumo/scenarios/sheikh_zayed_road/trips.xml"/>
    <route-file value="/Users/karimboubouh/Workspace/R/sumo/scenarios/sheikh_zayed_road/routes.rou.xml"/>
    <period value="60.0"/>
</configuration>
-->

<!-- generated on 2026-03-27T12:44:32.306726+04:00 by Eclipse SUMO duarouter 1.26.0
<duarouterConfiguration xmlns:xsi="http://www.w3.org/2001/XMLSchema-instance" xsi:noNamespaceSchemaLocation="http://sumo.dlr.de/xsd/duarouterConfiguration.xsd">

    <input>
        <net-file value="/Users/karimboubouh/Workspace/R/sumo/scenarios/sheikh_zayed_road/network.net.xml"/>
        <route-files value="/Users/karimboubouh/Workspace/R/sumo/scenarios/sheikh_zayed_road/trips.xml"/>
    </input>

    <output>
        <output-file value="/Users/karimboubouh/Workspace/R/sumo/scenarios/sheikh_zayed_road/routes.rou.xml"/>
        <alternatives-output value="NUL"/>
    </output>

    <time>
        <begin value="0"/>
        <end value="3600.0"/>
    </time>

    <report>
        <no-warnings value="true"/>
        <ignore-errors value="true"/>
        <no-step-log value="true"/>
    </report>

</duarouterConfiguration>
-->

<routes xmlns:xsi="http://www.w3.org/2001/XMLSchema-instance" xsi:noNamespaceSchemaLocation="http://sumo.dlr.de/xsd/routes_file.xsd">
    <vehicle id="0" depart="0.00">
        <route edges="87360225#0 87360225#1 500795347 480737862#1 480737862#2 463467020#0 480292058 981598172 10481964 981598178 981598184 480737842 480737843 251720557 480737840 95085362 480133776#0 480133776#0-AddedOffRampEdge 947221442#0 947221442#0-AddedOffRampEdge 947221445 980973422 980973414 983288828#0 983288828#1 983288828#3 983288828#4 983288828#5 485391616#0 485391616#1 485391614 485391612 485391611 972056155 856487665#0 856487665#2 496777511 496780605 393371003#5 496780609 -496780607 -808408966#3 -808408966#2 -808408966#0 808408962#4 808408962#5 808408962#6 808408962#7"/>
    </vehicle>
    <vehicle id="1" depart="60.00">
        <route edges="480737862#1 480737862#2 463467020#0 480292058 981598172 10481964 981598178 981598184 480737842 480737843 251720557 480737840 95085362 480133776#0 480133776#0-AddedOffRampEdge 947221442#0 947221442#0-AddedOffRampEdge 947221445 980973422 980973414 983288828#0 983288828#1 983288828#3 983288828#4 983288828#5 485391616#0 485391616#1 485391614 485391612 485391611 972056155 856487665#0 856487665#2 496777511 496780605 393371003#5 393371003#6 393371003#7 496780603 -24511548#5 -24511548#4 -24448028#5 -24448028#3"/>
    </vehicle>
    <vehicle id="2" depart="120.00">
        <route edges="1100871186#0 -1100871185 -808408962#6 -808408962#5 -808408962#4 808408966#0 808408966#2 808408966#3 808408966#5 496780610 393371003#7 496780603 -24511548#5 -24511548#4 -24448028#5 -24448028#3 -24448028#2 -24448028#1 -24448028#0 1152856448 499994597#4"/>
    </vehicle>
    <vehicle id="3" depart="180.00">
        <route edges="78188161#4 78188161#5-AddedOnRampEdge 78188161#5 78188161#5-AddedOffRampEdge 78188161#6 78188161#7 78188161#8 78188161#8-AddedOffRampEdge 78188161#9 981500115#0 1230058173#5 1230058173#6 188153777#5 981500118#0 981500118#1 981500118#2-AddedOnRampEdge 981500118#2 981500118#3 981500118#4 981500118#5 981500118#6 981500118#6-AddedOffRampEdge 981500118#7 446664225 980973412 446664227 980973425#0 980973425#2 980973425#3 980973425#3-AddedOffRampEdge 980973425#4 484802055 484802054 95085360 480737865 480737841 480737864 237427514#0 237427514#0-AddedOffRampEdge 1100837037 981598184 480737842 95085361 88652961 501745979#0 501745979#1 501745979#2 501745979#3 501745979#4 501060710#1 501060710#2 501060710#3 501060710#4"/>
    </vehicle>
    <vehicle id="4" depart="240.00">
        <route edges="973125665#0 973125665#1 980973425#2 980973425#3 980973425#3-AddedOffRampEdge 97819092 813334401#0 813334401#1 813334401#2 393414807 97820866#11 97820866#15 97118063#2 97118063#3 485391618#0 485391618#1 50810442 980973423 97817430#0 97817430#1 97817430#2 97817430#4 274412247#0 274412247#1 274412247#2 274412247#3 274412247#4 274412247#5 274412247#6 274412247#7 274412247#8 79420497#1 79420497#2 79420497#3 79420497#4 79420497#5 79420497#6 79420497#7 613141171#0 613141171#1 613141171#2 613141171#3"/>
    </vehicle>
    <vehicle id="5" depart="300.00">
        <route edges="96942322#5 96942322#6 972207420 615319939 615319940 156226276#5 156226276#1 156226276#2 156226276#3 163632092 -615319939 972207421 -96942322#6 -96942322#5 -96942322#4 -96942322#3 -96942322#2 -96942322#1 -96942322#0 981163383 176081393#3 516052581#0 516052581#1 516052581#3 96942318#0 96942318#1 96942318#2 96942318#3 613136173#0 500229248#20 500229248#21 500229248#22 500229248#23 500229248#24 500229248#25 500229248#26 500229248#27 500229248#28 500191619#0 947221444 980973416 97817436 980973419 97118062 983288828#0 983288828#1 983288828#3 983288828#4 983288828#5 485391616#0 485391616#1 485391614 485391612 485391611 972056155 856487665#0 856487665#2"/>
    </vehicle>
    <vehicle id="6" depart="360.00">
        <route edges="500229248#19 500229248#20 500229248#21 500229248#22 500229248#23 500229248#24 500229248#25 500229248#26 500229248#27 500229248#28 500191619#0 947221444 980973416 97817436 980973419 97118062 983288828#0 983288828#1 983288828#3 983288828#4 983288828#5 485391616#0 485391616#1 485391614 485391612 485391611 972056155 983561577#0 983561577#1-AddedOnRampEdge"/>
    </vehicle>
    <vehicle id="7" depart="420.00">
        <route edges="382072007#2 500229248#11 500229248#12 500229248#13 500229248#16 500229248#18 500229248#19 500229248#20 500229248#21 500229248#22 500229248#23 500229248#24 500229248#25 500229248#26 500229248#27 500229248#28 500191619#0 947221444 980973418 980973424 980973425#0 980973425#2 980973425#3 980973425#3-AddedOffRampEdge 980973425#4 484802055 484802054 95085360 480737865 480737841 480737864 237427514#0 237427514#0-AddedOffRampEdge 1100837037 981598184 480737842 95085361 88652961 501745979#0 501745979#1 501745979#2 501745979#3 501745979#4"/>
    </vehicle>
    <vehicle id="8" depart="480.00">
        <route edges="97817430#7 97817430#9 97817430#10 169309845#1 169309845#2 169309847#2 169309847#3 169309847#4 169309847#5 169309847#6 98502347#0 169309851 500229248#18 500229248#19 500229248#20 500229248#21 500229248#22 500229248#23 500229248#24 500229248#25 500229248#26 500229248#27 500229248#28 500191619#0 947221447 97817430#2 97817430#4 274412247#0 274412247#1 274412247#2 274412247#3 274412247#4 274412247#5 274412247#6 274412247#7 274412247#8 79420497#1 79420497#2 79420497#3 79420497#4 79420497#5 79420497#6 79420497#7 613141171#0 613141171#1 613141171#2 613141171#3 96942325#0 96942325#2 525000570"/>
    </vehicle>
    <vehicle id="9" depart="540.00">
        <route edges="-808408962#9 808408963#0 808408962#1 808408962#2 -1099830601 808408966#2 808408966#3 808408966#5 496780610 393371003#7 393371003#8 393371003#1 393371003#2 393371003#3 496780606 -496777511 206363061#0 206363061#1 983561576 983561579 514454477#1 514454477#2 485416136#0 485416136#1 485416136#2 485391613 97118063#0 97118063#1 97118063#2 97118063#3 485391618#0 947221440#0 980973415 980973413 980973421 78188161#1 78188161#2 78188161#3 78188161#4 78188161#5-AddedOnRampEdge 78188161#5 78188161#5-AddedOffRampEdge 78188161#6 78188161#7 78188161#8 78188161#8-AddedOffRampEdge 78188161#9 981500115#0 1230058173#5"/>
    </vehicle>
    <vehicle id="10" depart="600.00">
        <route edges="691777949#3 692287658#0 692287658#1 485416136#0 485416136#1 485416136#2 485391613 97118063#0 97118063#1 97118063#2 97118063#3 485391618#0 485391618#1 446664227 980973425#0 980973425#2 980973425#3 980973425#3-AddedOffRampEdge 97819092 813334401#0 813334401#1 813334401#2 393414807 97820866#11 393391116"/>
    </vehicle>
    <vehicle id="11" depart="660.00">
        <route edges="161671995#4 24511548#2 24511548#3 24511548#4 24511548#5 496780604 393371003#1 393371003#2 393371003#3 496780606 -496777511 206363061#0 206363061#1 983561576 983561579 514454477#1 514454477#2 485416136#0 485416136#1 485416136#2 485391613 97118063#0 97118063#1 97118063#2 97118063#3 485391618#0 947221440#0 980973415 980973413 980973421 78188161#1 78188161#2 78188161#3 78188161#4 78188161#5-AddedOnRampEdge 78188161#5 78188161#5-AddedOffRampEdge 78188161#6 78188161#7 78188161#8 78188161#8-AddedOffRampEdge 78188161#9 981500115#0 1230058173#5 1230058173#6 188153777#5 981500118#0 981500118#1"/>
    </vehicle>
    <vehicle id="12" depart="720.00">
        <route edges="78188161#2 78188161#3 78188161#4 78188161#5-AddedOnRampEdge 78188161#5 78188161#5-AddedOffRampEdge 78188161#6 78188161#7 78188161#8 78188161#8-AddedOffRampEdge 78188161#9 981500115#0 1230058173#5 1230058173#6 188153777#5 981500118#0 981500118#1 981500118#2-AddedOnRampEdge 981500118#2 981500118#3 981500118#4 981500118#5 947221439#0 947221439#0-AddedOffRampEdge 947221439#3 980973420 980973417 97817430#1 97817430#2 97817430#4 274412247#0 274412247#1 274412247#2 274412247#3 274412247#4 274412247#5 274412247#6 274412247#7 274412247#8 79420497#1 79420497#2 79420497#3 79420497#4 79420497#5 1092751674 927255784#0 927255784#1 927255784#2 927255784#3 927255784#4 927255784#5 927255784#6 176081393#5 176081393#0 176081393#1 981163384 96942322#0 96942322#1 96942322#2 96942322#3 96942322#4 96942322#5 96942322#6 972207420 615319939 615319940"/>
    </vehicle>
    <vehicle id="13" depart="780.00">
        <route edges="1156760273#0 981598178 981598184 480737842 480737843 251720557 480737840 95085362 480133776#0 480133776#0-AddedOffRampEdge 947221442#0 947221442#0-AddedOffRampEdge 947221445 980973422 980973414 983288828#0 983288828#1 983288828#3 983288828#4 983288828#5 485391616#0 485391616#1 485391614 485391612 485391611 972056155 856487665#0 856487665#2 496777511 496780605 393371003#5 393371003#6 393371003#7 393371003#8 393371003#1 496780612 -206363054#1 -206363054#0 -24511548#0"/>
    </vehicle>
    <vehicle id="14" depart="840.00">
        <route edges="206363061#1 983561576 983561579 514454477#1 514454477#2 485416136#0 485416136#1 485416136#2 485391613 97118063#0 97118063#1 97118063#2 97118063#3 485391618#0 485391618#1 50810442 980973423 97817430#0 97817430#1 97817430#2 97817430#4 97817430#5 97817430#6 97817430#7 97817430#9 97817430#10 169309845#1 169309845#2 169309847#2 169309847#3 169309847#4 169309850#0 1098776828#0 1098776824 169309848#1"/>
    </vehicle>
    <vehicle id="15" depart="900.00">
        <route edges="97819564 97820863 97820866#0 97820866#1 97820866#2 97820866#3 97820866#4 97820866#5 97820866#6 97820866#9 97820866#11 97820866#15 97118063#2 97118063#3 485391618#0 485391618#1 446664227 980973425#0 980973425#2 980973425#3 980973425#3-AddedOffRampEdge 980973425#4 484802055 484802054 95085360 480737865 480737841 480737864 237427514#0"/>
    </vehicle>
    <vehicle id="16" depart="960.00">
        <route edges="161671995#1 161671995#2 161671995#4 24511548#2 24511548#3 24511548#4 24511548#5 496780604 393371003#1 393371003#2 393371003#3 496780606 -496777511 206363061#0 206363061#1 983561576 983561579 514454477#1 514454477#2 485416136#0 485416136#1 485416136#2 485391613 135704775 80528561 80528561-AddedOffRampEdge 700004142#0 700004142#1 484101135 381969455 484101133#2 971987326 475035478#6 475035478#8 699926259 156226276#3 156226276#4 156226276#5 156226220#0 156226220#1 156226220#2 156226220#3"/>
    </vehicle>
    <vehicle id="17" depart="1020.00">
        <route edges="514455720#0 514455720#1 393414794 692287662#1 692287661 691777949#0 691777949#1 691777949#3 692287658#0 692287658#1 485416136#0 485416136#1 485416136#2 485391613 97118063#0 97118063#1 97118063#2 97118063#3 485391618#0 947221440#0 980973415"/>
    </vehicle>
    <vehicle id="18" depart="1080.00">
        <route edges="-830308043#0 -830308041#1 -830308041#0 24448028#5 24511548#4 24511548#5 496780604 393371003#1 393371003#2 393371003#3 496780606 -496777511 206363061#0 206363061#1 983561576 983561579 514454477#1 983569050 500194909#2 500194909#3 692287659 -691777949#3 -691777949#1 -691777949#0 692287660"/>
    </vehicle>
    <vehicle id="19" depart="1140.00">
        <route edges="-691777949#0 692287660 692287662#3 692287662#4 692287662#0 692287662#1 692287661 691777949#0 691777949#1 691777949#3 692287658#0 692287658#1 485416136#0 485416136#1 485416136#2 485391613 135704775 80528561 80528561-AddedOffRampEdge 700004142#0 700004142#1 484101135 381969455 484101133#2 971987326 475035478#6 475035478#8"/>
    </vehicle>
    <vehicle id="20" depart="1200.00">
        <route edges="-1099834746#1 830308042#0 830308042#1 830308042#2"/>
    </vehicle>
    <vehicle id="21" depart="1260.00">
        <route edges="161671995#4 24511548#2 24511548#3 24511548#4 24511548#5 496780604 393371003#1 393371003#2 393371003#3 496780606 -496777511 206363061#0 206363061#1 983561576 983561579 514454477#1 514454477#2 485416136#0 485416136#1 485416136#2 485391613 97118063#0 97118063#1 97118063#2 97118063#3 485391618#0 947221440#0 980973415 980973413 980973421 78188161#1 78188161#2 78188161#3 78188161#4 78188161#5-AddedOnRampEdge"/>
    </vehicle>
    <vehicle id="22" depart="1320.00">
        <route edges="-830308044#0 -830308041#0 24448028#5 24511548#4 24511548#5 496780604 393371003#1 393371003#2 393371003#3 496780606 -496777511 206363061#0 206363061#1 983561576 983561579 514454477#1 514454477#2 485416136#0 485416136#1 485416136#2 485391613 97118063#0 97118063#1 97118063#2 97118063#3 485391618#0 485391618#1 446664227 980973425#0 980973425#2 980973425#3 980973425#3-AddedOffRampEdge 980973425#4 484802055 484802054"/>
    </vehicle>
    <vehicle id="23" depart="1380.00">
        <route edges="97819562-AddedOffRampEdge 10710679 96943617 96943603 100718917#0 100718917#1 480133776#0 480133776#0-AddedOffRampEdge 480133776#1 446664226#0 97817430#0 97817430#1 97817430#2 97817430#4 97817430#5 97817430#6 97817430#7 97817430#9 97817430#10 169309845#1 169309845#2 169309847#2 169309840#0 1268975687 169309843#1"/>
    </vehicle>
    <vehicle id="24" depart="1440.00">
        <route edges="496780611#0 1099830600 808408966#5 496780610 393371003#7 393371003#8 393371003#1 393371003#2 393371003#3 496780606 -496777511 206363061#0 206363061#1 983561576 983561579 514454477#1 514454477#2 485416136#0 485416136#1 485416136#2 485391613 97118063#0 1098538571#0 1098538571#1 1098538571#4 1098538571#8 1098538571#9"/>
    </vehicle>
    <vehicle id="25" depart="1500.00">
        <route edges="-1036548508 514455720#1 393414794 692287662#1 692287661 691777949#0 691777949#1 691777949#3 692287658#0 692287658#1 485416136#0 485416136#1 485416136#2 485391613 97118063#0 97118063#1 97118063#2 97118063#3 485391618#0 947221440#0 980973415 980973413 980973421 78188161#1 78188161#2 78188161#3 78188161#4 78188161#5-AddedOnRampEdge 78188161#5 78188161#5-AddedOffRampEdge 78188161#6 78188161#7 78188161#8 78188161#8-AddedOffRampEdge 78188161#9 981500115#0 1230058173#5 1230058173#6 981500120 1160653070 97817447-AddedOnRampEdge 97817447 24448030#0"/>
    </vehicle>
    <vehicle id="26" depart="1560.00">
        <route edges="205361105#2 205361105#3 981500120 1160653070 97817447-AddedOnRampEdge 97817447 97817445#1 97817445#2 637304845#0 637304845#1 637304845#2 637304845#3 1098796679#0 1098796679#1 1098796678 1098796680 -637304844#1"/>
    </vehicle>
    <vehicle id="27" depart="1620.00">
        <route edges="-808408966#3 -808408966#2 -808408966#0 -808408962#3 -1099830601 808408966#2 808408966#3 808408966#5 496780610"/>
    </vehicle>
    <vehicle id="28" depart="1680.00">
        <route edges="-808408962#0 -808408962#7 -808408962#6 -808408962#5 -808408962#4 808408966#0 808408966#2 808408966#3 808408966#5 496780610 393371003#7 393371003#8 393371003#1 393371003#2 393371003#3 496780606 -496777511 206363061#0 206363061#1 983561576 983561579 514454477#1 514454477#2 485416136#0 485416136#1 485416136#2 485391613 97118063#0 97118063#1 97118063#2 97118063#3 485391618#0 947221440#0 980973415 980973413 980973421 78188161#1 78188161#2 78188161#3 78188161#4 78188161#5-AddedOnRampEdge 78188161#5 78188161#5-AddedOffRampEdge 78188161#6 78188161#7 78188161#8 78188161#8-AddedOffRampEdge 78188161#9 981500115#0 1230058173#5 1230058173#6 188153777#5 981500118#0 981500118#1 981500118#2-AddedOnRampEdge 981500118#2 981500118#3 981500118#4 981500118#5 947221439#0 947221439#0-AddedOffRampEdge 947221439#3"/>
    </vehicle>
    <vehicle id="29" depart="1740.00">
        <route edges="947221439#3 980973420 980973417 97817430#1 97817430#2 97817430#4 274412247#0 274412247#1 274412247#2 274412247#3 274412247#4 274412247#5 274412247#6 274412247#7 274412247#8 79420497#1 79420497#2 79420497#3 79420497#4 79420497#5 1092751674 927255784#0 927255784#1 927255784#2 927255784#3 927255784#4 927255784#5 927255784#6 176081393#5 176081393#0 176081393#1 981163384 96942322#0 96942322#1 96942322#2 96942322#3 96942322#4 96942322#5 96942322#6 972207420 615319939 615319940 156226276#5 156226276#1 699926260 -475035478#8 -971987323"/>
    </vehicle>
    <vehicle id="30" depart="1800.00">
        <route edges="485391612 485391611 972056155 983561576 983561579 514454477#1 514454477#2 485416136#0 485416136#1 485416136#2 485391613 97118063#0 97118063#1 97118063#2 97118063#3 485391618#0 485391618#1 446664227 980973425#0 980973425#2 980973425#3 980973425#3-AddedOffRampEdge 980973425#4 484802055 484802054 95085360 480737865 480737841 480737864 237427514#0 237427514#0-AddedOffRampEdge 1100837037 981598184 480737842 95085361 88652961 501745979#0 501745979#1 501745979#2"/>
    </vehicle>
    <vehicle id="31" depart="1860.00">
        <route edges="500229248#22 500229248#23 500229248#24 500229248#25 500229248#26 500229248#27 500229248#28 500191619#0 947221444 980973416 97817436 980973419 97118062 983288828#0 983288828#1 983288828#3 983288828#4 983288828#5 485391616#0 485391616#1 485391614 485391612 485391611 972056155 856487665#0 856487665#2"/>
    </vehicle>
    <vehicle id="32" depart="1920.00">
        <route edges="-96823243 -24448028#3 -24448028#2 -24448028#1 -24448028#0 1152856448 499994597#4 1094314787 499994596#1 499994596#2 499994596#3 499994596#4 499994596#5 499994596#6 499994596#7 24448947#3 24448947#4 206363057 -97817445#3 -97817445#2 -97817445#1 24448030#0 24448030#1 24448030#2 514397534#0 205361100 981500119#0 981500119#1 1230058172#0"/>
    </vehicle>
    <vehicle id="33" depart="1980.00">
        <route edges="24448030#1 24448030#2 205361103 981500118#2-AddedOnRampEdge 981500118#2 981500118#3 981500118#4 981500118#5 981500118#6 981500118#6-AddedOffRampEdge 981500118#7 446664225 980973412 446664227 980973425#0 980973425#2 980973425#3 980973425#3-AddedOffRampEdge 97819092 813334401#0 813334401#1 813334401#2 514417043#0 1098538571#8 1098538571#9 1098538571#10 1098538571#11 485391622#1 566710483#0 566710483#1 566710483#2 566710483#3 566710483#4 566710483#5 566710483#6 566710483#7 566710483#8"/>
    </vehicle>
    <vehicle id="34" depart="2040.00">
        <route edges="1156773019 973226029 480737849 1156773021"/>
    </vehicle>
    <vehicle id="35" depart="2100.00">
        <route edges="-808408962#10 808408964 808408962#2 -1099830601 808408966#2 808408966#3 808408966#5 496780610 393371003#7 393371003#8 393371003#1 393371003#2 393371003#3 496780606 -496777511 206363061#0 206363061#1 983561576 983561579 514454477#1 514454477#2 485416136#0 485416136#1 485416136#2 485391613 135704775 80528561 80528561-AddedOffRampEdge 700004142#0"/>
    </vehicle>
    <vehicle id="36" depart="2160.00">
        <route edges="1156760273#0 981598178 981598184 480737842 480737843 251720557 480737840 95085362 480133776#0 480133776#0-AddedOffRampEdge 947221442#0 947221442#0-AddedOffRampEdge 947221445 980973422"/>
    </vehicle>
    <vehicle id="37" depart="2220.00">
        <route edges="97817430#5 100017277 500229248#26 500229248#27 500229248#28 500191619#0 947221444 980973416 97817436 980973419 97118062 983288828#0 983288828#1 983288828#3 983288828#4 983288828#5 485391616#0 485391616#1 485391614 485391612 485391611 972056155 856487665#0 856487665#2 496777511 496780605 393371003#5 496780609 -496780607 -808408966#3 -808408966#2 1099830601 -808408962#2 -808408962#1 -808408962#0 -808408962#7 -808408962#6 -808408962#5 -808408962#4"/>
    </vehicle>
    <vehicle id="38" depart="2280.00">
        <route edges="96942322#5 96942322#6 972207420 615319939 615319940 156226276#5 156226276#1 156226276#2 156226276#3 163632092 -615319939 972207421 -96942322#6 -96942322#5 -96942322#4 -96942322#3 -96942322#2 -96942322#1 -96942322#0 981163383 176081393#3 516052581#0 516052581#1 516052581#3 96942318#0 96942318#1 96942318#2 96942318#3 613136173#0 500229248#20 500229248#21 500229248#22 500229248#23 500229248#24 500229248#25 500229248#26 500229248#27 500229248#28 500191619#0 947221444 980973416 78188161#0 78188161#1 78188161#2 78188161#3 78188161#4 78188161#5-AddedOnRampEdge 78188161#5 78188161#5-AddedOffRampEdge 78188161#6 78188161#7 78188161#8 78188161#8-AddedOffRampEdge 78188161#9 981500115#0 1230058173#5 1230058173#6 981500120 1160653070 97817447-AddedOnRampEdge 97817447 1098796693 637304844#0 637304844#1 96823252 -1098796678 1098796677"/>
    </vehicle>
    <vehicle id="39" depart="2340.00">
        <route edges="-830186221 830186222#1 -830186225#0 830186223#2 -1099830603 24511548#3 24511548#4 24511548#5 496780604 393371003#1 393371003#2 393371003#3 496780606 -496777511 206363061#0 206363061#1 983561576 983561579 514454477#1 514454477#2 485416136#0 485416136#1 485416136#2 485391613 135704775 80528561 80528561-AddedOffRampEdge 700004142#0 700004142#1 484101135"/>
    </vehicle>
    <vehicle id="40" depart="2400.00">
        <route edges="480737862#2 463467020#0 480292058 981598172 10481964 981598178 981598184 480737842 480737843 251720557 480737840 95085362 480133776#0 480133776#0-AddedOffRampEdge 947221442#0 947221442#0-AddedOffRampEdge 973125662 980973425#0 980973425#2 980973425#3 980973425#3-AddedOffRampEdge 97819092 813334401#0 813334401#1 813334401#2 393414807 97820866#11 97820866#15 97118063#2 97118063#3 485391618#0"/>
    </vehicle>
    <vehicle id="41" depart="2460.00">
        <route edges="830308044#1 -830308043#1 -830308043#0 -830308041#1 -830308041#0 24448028#5 24511548#4 24511548#5 496780604 393371003#1 393371003#2 393371003#3 393371003#4 393371003#5 496780609 -496780607 -808408966#3 -808408966#2 -808408966#0 808408962#4"/>
    </vehicle>
    <vehicle id="42" depart="2520.00">
        <route edges="484101133#3 475035478#4 475035478#6 475035478#8 699926259 156226276#3 163632092 -615319939 972207421 -96942322#6 -96942322#5 -96942322#4 -96942322#3 -96942322#2 -96942322#1 -96942322#0 981163383 176081393#3 516052581#0 516052581#1 516052581#3 96942318#0 96942318#1 96942318#2 96942318#3 613136173#0 500229248#20 500229248#21 500229248#22 500229248#23 500229248#24 500229248#25 500229248#26 500229248#27 500229248#28 500191619#0 947221444 980973416 78188161#0 78188161#1 78188161#2 78188161#3 78188161#4 78188161#5-AddedOnRampEdge 78188161#5 78188161#5-AddedOffRampEdge 78188161#6 78188161#7 78188161#8 78188161#8-AddedOffRampEdge 78188161#9 981500115#0 1230058173#5 1230058173#6 981500120 1160653070 97817447-AddedOnRampEdge 97817447 97817445#1"/>
    </vehicle>
    <vehicle id="43" depart="2580.00">
        <route edges="480133776#0-AddedOffRampEdge 480133776#1 446664226#0 446664224 980973416 78188161#0 78188161#1 78188161#2 78188161#3 78188161#4 78188161#5-AddedOnRampEdge 78188161#5 78188161#5-AddedOffRampEdge 78188161#6 78188161#7 78188161#8 78188161#8-AddedOffRampEdge 78188161#9 981500115#0 1230058173#5 1230058173#6 981500120 1160653070 97817447-AddedOnRampEdge 97817447 1098796693 637304844#0 96823253 -637304845#1 -637304845#0"/>
    </vehicle>
    <vehicle id="44" depart="2640.00">
        <route edges="161671995#2 161671995#4 24511548#2 24511548#3 24511548#4 24511548#5 496780604 393371003#1 393371003#2 393371003#3 496780606 -496777511 206363061#0 206363061#1 983561576 983561579 514454477#1 514454477#2 485416136#0 485416136#1 485416136#2 485391613 97118063#0 97118063#1 97118063#2 97118063#3 485391618#0 485391618#1 50810442 980973423 97817430#0 97817430#1 97817430#2 97817430#4 274412247#0 274412247#1 274412247#2 274412247#3 274412247#4 274412247#5 274412247#6 274412247#7 274412247#8 79420497#1 79420497#2 79420497#3 79420497#4 79420497#5 79420497#6 79420497#7 613141171#0 613141171#1 962061944"/>
    </vehicle>
    <vehicle id="45" depart="2700.00">
        <route edges="983288828#5 485391616#0 485391616#1 485391614 485391612 485391611 972056155 983561576 983561579 514454477#1 514454477#2 485416136#0 485416136#1 485416136#2 485391613 97118063#0 97118063#1 97118063#2 97118063#3 485391618#0 485391618#1 50810442 980973423 97817430#0 97817430#1 97817430#2 97817430#4 274412247#0 274412247#1 274412247#2 274412247#3 274412247#4 274412247#5 274412247#6 274412247#7 274412247#8 79420497#1 79420497#2 79420497#3 79420497#4 79420497#5 79420497#6 79420497#7 613141171#0 613141171#1 613141171#2 613141171#3 96942325#0 96942325#2 525000570 525000566 525000572"/>
    </vehicle>
    <vehicle id="46" depart="2760.00">
        <route edges="-637304844#1 -637304844#0 1098796691 24448030#0 24448030#1 24448030#2 205361103 981500118#2-AddedOnRampEdge 981500118#2 981500118#3 981500118#4 981500118#5 981500118#6 981500118#6-AddedOffRampEdge 981500118#7 446664225 980973412 446664227 980973425#0 980973425#2 980973425#3 980973425#3-AddedOffRampEdge 97819092 813334401#0 813334401#1 813334401#2 514417043#0 1098538571#8 1098538571#9 1098538571#10 1098538571#11 485391622#1 566710483#0 566710483#1 566710483#2 566710483#3 566710483#4"/>
    </vehicle>
    <vehicle id="47" depart="2820.00">
        <route edges="496780612 -206363054#1 -206363054#0 24511548#1 24511548#2 24511548#3 24511548#4 24511548#5 496780604 393371003#1 393371003#2 393371003#3 496780606 -496777511 206363061#0 206363061#1 983561576 983561579 514454477#1 514454477#2 485416136#0 485416136#1 485416136#2 485391613 97118063#0 97118063#1 97118063#2 97118063#3 485391618#0 485391618#1 50810442 980973423 97817430#0 97817430#1 97817430#2 97817430#4 97817430#5 97817430#6 97817430#7 97817430#9 97817430#10"/>
    </vehicle>
    <vehicle id="48" depart="2880.00">
        <route edges="-808408963#0 808408962#9 808408964 808408962#2 -1099830601 808408966#2 808408966#3 808408966#5 496780610 393371003#7 393371003#8 393371003#1 393371003#2 393371003#3 496780606 -496777511 206363061#0 206363061#1 983561576 983561579 514454477#1 514454477#2 485416136#0 485416136#1 485416136#2 485391613 97118063#0 97118063#1 97118063#2 97118063#3 485391618#0 485391618#1 50810442 980973423 97817430#0 97817430#1 97817430#2 97817430#4 97817430#5 97817430#6 97817430#7 97817430#9 97817430#10 169309845#1 169309845#2 169309847#2 169309847#3 169309847#4 169309850#0 1098776828#0 1098776824"/>
    </vehicle>
    <vehicle id="49" depart="2940.00">
        <route edges="1173887996#1 382072007#2 500229248#11 500229248#12 500229248#13 500229248#16 500229248#18 500229248#19 500229248#20 500229248#21 500229248#22 500229248#23 500229248#24 500229248#25 500229248#26 500229248#27 500229248#28 500191619#0 947221447 97817430#2 97817430#4 274412247#0 274412247#1 274412247#2 274412247#3 274412247#4 274412247#5 274412247#6 274412247#7 274412247#8 79420497#1 79420497#2 79420497#3 79420497#4 79420497#5 79420497#6 79420497#7 613141171#0 613141171#1 613141171#2 613141171#3 96942325#0 96942325#2 525000570 210813138 613099909 -96942322#5 -96942322#4 -96942322#3 -96942322#2 -96942322#1 -96942322#0"/>
    </vehicle>
    <vehicle id="50" depart="3000.00">
        <route edges="97820866#5 97820866#6 97820866#9 97820866#11 97820866#15 97118063#2 97118063#3 485391618#0 485391618#1 50810442 980973423 97817430#0 97817430#1 97817430#2 97817430#4 274412247#0 274412247#1 274412247#2 274412247#3 274412247#4 274412247#5 274412247#6 274412247#7 274412247#8 79420497#1 79420497#2 79420497#3 79420497#4 79420497#5 1092751674 927255784#0 927255784#1 927255784#2 927255784#3 927255784#4 927255784#5 927255784#6 176081393#5 176081393#0 176081393#1 981163384 96942322#0 96942322#1 96942322#2 96942322#3 96942322#4 96942322#5 96942322#6 972207420 615319939 615319940 156226276#5 156226220#0 156226220#1 156226220#2"/>
    </vehicle>
    <vehicle id="51" depart="3060.00">
        <route edges="500194909#1 500194909#2 500194909#3 500194909#4 692287658#1 485416136#0 485416136#1 485416136#2 485391613 97118063#0 97118063#1 97118063#2 97118063#3 485391618#0 947221440#0 980973415 980973413 980973421 78188161#1 78188161#2 78188161#3 78188161#4 78188161#5-AddedOnRampEdge 78188161#5 78188161#5-AddedOffRampEdge 78188161#6 78188161#7 78188161#8 78188161#8-AddedOffRampEdge 78188161#9 981500115#0 1230058173#5 981500116"/>
    </vehicle>
    <vehicle id="52" depart="3120.00">
        <route edges="1098796691 97817445#1 97817445#2 97817445#3 206363059 24448947#0 24448947#1 499994597#0 499994597#1 499994597#2 1152856449 24448028#0 24448028#1 24448028#2 24448028#3 830308041#0 830308041#1 830308041#2 830308041#3"/>
    </vehicle>
    <vehicle id="53" depart="3180.00">
        <route edges="79420497#5 79420497#6 79420497#7 613141171#0 613141171#1 613141171#2 613141172 96942318#0 96942318#1 96942318#2 96942318#3 613136173#0 500229248#20 500229248#21 500229248#22 500229248#23 500229248#24 500229248#25 500229248#26 500229248#27 500229248#28 500191619#0 947221444 980973416 78188161#0 78188161#1 78188161#2 78188161#3 78188161#4 78188161#5-AddedOnRampEdge 78188161#5 78188161#5-AddedOffRampEdge 78188161#6 78188161#7 78188161#8 78188161#8-AddedOffRampEdge 78188161#9 981500115#0 1230058173#5 1230058173#6 981500120 1160653070 97817447-AddedOnRampEdge 97817447 97817445#1 97817445#2 97817445#3 206363059"/>
    </vehicle>
    <vehicle id="54" depart="3240.00">