<?xml version="1.0" encoding="UTF-8"?>

<!-- generated on 2026-04-05 14:01:23.002660 by Eclipse SUMO randomTrips.py v0.0.0
<configuration>
    <net-file value="/Users/karimboubouh/Workspace/R/sumo/scenarios/khalifa_university/network.net.xml"/>
    <output-trip-file value="/Users/karimboubouh/Workspace/R/sumo/scenarios/khalifa_university/trips.xml"/>
    <route-file value="/Users/karimboubouh/Workspace/R/sumo/scenarios/khalifa_university/routes.rou.xml"/>
    <end value="50.0"/>
    <period value="1.0"/>
</configuration>
-->

<!-- generated on 2026-04-05T14:01:22.993303+04:00 by Eclipse SUMO duarouter 1.26.0
<duarouterConfiguration xmlns:xsi="http://www.w3.org/2001/XMLSchema-instance" xsi:noNamespaceSchemaLocation="http://sumo.dlr.de/xsd/duarouterConfiguration.xsd">

    <input>
        <net-file value="/Users/karimboubouh/Workspace/R/sumo/scenarios/khalifa_university/network.net.xml"/>
        <route-files value="/Users/karimboubouh/Workspace/R/sumo/scenarios/khalifa_university/trips.xml"/>
    </input>

    <output>
        <output-file value="/Users/karimboubouh/Workspace/R/sumo/scenarios/khalifa_university/routes.rou.xml"/>
        <alternatives-output value="NUL"/>
    </output>

    <time>
        <begin value="0.0"/>
        <end value="50.0"/>
    </time>

    <report>
        <no-warnings value="true"/>
        <ignore-errors value="true"/>
        <no-step-log value="true"/>
    </report>

</duarouterConfiguration>
-->

<routes xmlns:xsi="http://www.w3.org/2001/XMLSchema-instance" xsi:noNamespaceSchemaLocation="http://sumo.dlr.de/xsd/routes_file.xsd">
    <vehicle id="0" depart="0.00">
        <route edges="24290764#8 744479996 -24290785#5 -24290785#4 -24290785#3 -24290785#2 -24290785#1 -24290785#0 24290783#2 24290783#3 24290783#4 24290783#6 24290783#7 24290783#8 24290783#9 432412032 432412027#0 432412027#1-AddedOnRampEdge 432412027#1 24293413#0 24293413#1 24293413#2 24293413#3 24293413#4 24293413#5 24293413#6 -170931392#0"/>
    </vehicle>
    <vehicle id="1" depart="1.00">
        <route edges="1102703281#0 1102703281#1 1102703281#2 1102703281#3-AddedOnRampEdge 1102703281#3 1102703281#4 1101027371#0 1101027371#1 1101027371#2 119131763#0 119131763#1 119131763#2 119131763#3 119131763#4 119131763#5-AddedOnRampEdge 119131763#5 119131763#6 119131763#7 119131763#8 119131763#9 119131763#10 398394925#0 398394925#1 1156266101 398394921#1 398394921#2 398394924#0 398394924#1-AddedOnRampEdge 398394924#1 24156180#0-AddedOnRampEdge 24156180#0 396594035 396594036#0 91673848#6 24290258#0 -24290257#1 -24290257#0 -396594036#4 -396594036#3 -396594036#2"/>
    </vehicle>
    <vehicle id="2" depart="2.00">
        <route edges="24293400#0 24293400#1 24293401 24293399#2 24293399#3 24293399#4 24293399#5 24293399#6 24293399#7 24293422 24293420#5 24293420#6 24293420#1 24290784#0 24290784#1 24290784#2 24290784#3 24290784#3-AddedOffRampEdge 24290784#4 432412028 432412033#0 432412033#1 432412033#2 432412033#3 432412033#4 24290764#0 24290764#1 24290764#2 24290764#4 24290786#0 24290786#1 24290786#3 24290786#4 24290786#6"/>
    </vehicle>
    <vehicle id="3" depart="3.00">
        <route edges="432412027#5 24293420#3 24293420#4 24293420#5 24293420#6 24293420#1 24290784#0 24290784#1 24290784#2 24290784#3 24290784#3-AddedOffRampEdge 265566027 432412029#1 1102705191#1 1102705191#2-AddedOnRampEdge 1102705191#2 1102705189#0 1102705189#1 1102705189#2 1102705189#3 1102705189#4 394129882 1102703287 119131779 1102703294 119131763#0 119131763#1 119131763#2 119131763#3 119131763#4 119131763#5-AddedOnRampEdge 119131763#5 119131763#6 119131763#7 119131763#8 119131763#9 119131763#10 398394925#0 398394925#1 1156266101 398394921#1 398394921#2 398394924#0 398394924#1-AddedOnRampEdge 398394924#1 24156180#0-AddedOnRampEdge 24156180#0 24156180#1 24156180#2-AddedOnRampEdge 24156180#2 -518964924#5 -518964924#4 -518964924#3 -24290243#3 -24290252#1 -24290254"/>
    </vehicle>
    <vehicle id="4" depart="4.00">
        <route edges="24156174#0 24156174#1 24156174#2 24206722#0 24206722#2 24206722#3 24206722#5 1102703278#4 1102703280 1102703282 1102703281#0 1102703281#1 1102703281#2 1102703281#3-AddedOnRampEdge 1102703281#3 1102703281#4 1101027371#0 1101027371#1 1101027371#2 432416071 1102703290 283795443 1102703297#0-AddedOnRampEdge 1102703297#0 1102703297#1 1102703297#2 1102703297#3 1102703297#4 1102703297#6 1102703297#7 1102703297#8 432412033#0 432412033#1 432412033#2 432412033#3 432412033#4 432412033#5 432412033#6 432412033#7 432412033#8 132911086 432411739#3 117208309 -170931391#3 -170931391#2 -170931457"/>
    </vehicle>
    <vehicle id="5" depart="5.00">
        <route edges="-396594036#1 91673848#6 91673848#7 91673848#8 91673848#9 24290245#2 24290245#3 398649474#0 398649474#1-AddedOnRampEdge 398649474#1 398649474#1-AddedOffRampEdge 398649474#2 398394923#0 398394923#1 1156266099 398394919#1 398394919#2 398394926#0 398394926#1-AddedOnRampEdge 398394926#1 398394926#1-AddedOffRampEdge 263351300#0 24206374#0 24206374#1 24206374#2 24206374#3 24206374#4"/>
    </vehicle>
    <vehicle id="6" depart="6.00">
        <route edges="-170931392#3 -170931392#2 -170931392#1 -170931392#0 170931413 493251574#0 24293415 170931598 1102705194#1 -24293416"/>
    </vehicle>
    <vehicle id="7" depart="7.00">
        <route edges="24290769#1 24290769#2 24290771#3 24290763#10 24290763#11 24290763#12 480573841 24290764#1 24290764#2 24290764#4 24290764#6 24290764#7 24290764#8 24290764#9 24290764#10 24290764#11 434375951#3-AddedOnRampEdge 434375951#3 434375951#3-AddedOffRampEdge 434375951#4 434375951#5-AddedOnRampEdge 434375951#5 434375951#5-AddedOffRampEdge 683444396 24156174#0-AddedOnRampEdge 24156174#0 24156174#1 24156174#2 24156174#3 24156174#4 24156174#5 24156174#6 24206729#0 24206729#1 24206729#3 24206729#4 24206729#5 24206729#6"/>
    </vehicle>
    <vehicle id="8" depart="8.00">
        <route edges="-396594036#3 -396594036#2 -396594036#1 91673848#6 91673848#7 91673848#8 24290259#0 24290259#1 24290259#2 24290259#3 24290259#4 24290259#5 24290259#6 24290259#7 24290259#8 24290259#9 24290259#10 24290259#11"/>
    </vehicle>
    <vehicle id="9" depart="9.00">
        <route edges="296882290#0 296882290#1 296882290#2 119131770#5 119131770#7 119131770#8 296873607#0 296873607#1 133453375#1 133453375#2 133453375#3 133453375#4 133453375#5 133453375#6 133453375#7 100947968#0 1102703285 1102703292 283795443 1102703297#0-AddedOnRampEdge 1102703297#0 1153744911 -24290802#11 -24290802#10 -24290802#8 -24290802#7 -24290802#6 -24290802#5 24290803#0 24290803#1 24290803#2 24290803#3 24290803#4 -117208318#1"/>
    </vehicle>
    <vehicle id="10" depart="10.00">
        <route edges="283795443 1102703297#0-AddedOnRampEdge 1102703297#0 1102703297#1 1102703297#2 1102703297#3 1102703297#4 24290821#0 24290821#1 24290821#2 24290816#5 24290816#6 24290816#7 24290816#8 24290816#10 24290816#11 24290802#10"/>
    </vehicle>
    <vehicle id="11" depart="11.00">
        <route edges="518964924#0 24290242#0 24290242#1 24290242#2 -396594036#5 24290257#0 24290257#1 24290258#1 24290258#2 24290258#3 24290244#0 24290244#1 24290244#2 24290244#3 24290245#0 24290245#1 24290245#2 24290245#3 398649474#0 398649474#1-AddedOnRampEdge 398649474#1 398649474#1-AddedOffRampEdge 398649474#2 398394923#0 398394923#1 398394923#2 398394920#0 398394920#1-AddedOnRampEdge 398394920#1 398394920#2 398394920#2-AddedOffRampEdge 398394920#3 398394920#4 398394920#5 398394920#5-AddedOffRampEdge 100947953 1102703297#0-AddedOnRampEdge 1102703297#0 1102703297#1 1102703297#2 1102703297#3 1102703297#4 1102703297#6 1102703297#7 1102703297#8 432412033#0 432412033#1 432412033#2 432412033#3 432412033#4 432412033#5 432412033#6 432412033#7 432412033#8 432412033#9 117208321"/>
    </vehicle>
    <vehicle id="12" depart="12.00">
        <route edges="-24290273 24290258#2 24290258#3 24290244#0 24290244#1 24290244#2 24290244#3 24290245#0 24290245#1 24290245#2 24290245#3 398649474#0 398649474#1-AddedOnRampEdge 398649474#1 398649474#1-AddedOffRampEdge 398649474#2 398394923#0 398394923#1 398394923#2 398394920#0 398394920#1-AddedOnRampEdge 398394920#1 398394920#2 398394920#2-AddedOffRampEdge 398394920#3 398394920#4 398394920#5 398394920#5-AddedOffRampEdge 100947953 1102703297#0-AddedOnRampEdge 1102703297#0 1102703297#1 1102703297#2 1102703297#3 1102703297#4 1102703297#6 1102703297#7 1102703297#8 432412033#0 432412033#1 432412033#2 432412033#3 432412033#4 432412033#5 432412033#6 432412033#7 432412033#8 432412033#9 117208321 152954992#2 152954992#3 152954992#4 24290771#0 24290771#1 24290771#2 -24290769#2 -24290769#1 -24290769#0 -24290765#3 -24290765#2 -24290765#1 -24290765#0"/>
    </vehicle>
    <vehicle id="13" depart="13.00">
        <route edges="398394925#0 398394925#1 1156266101 398394921#1 398394921#2 398394924#0 398394924#1-AddedOnRampEdge 398394924#1 24156180#0-AddedOnRampEdge 24156180#0 396594035 396594036#0 91673848#6 91673848#7 91673848#8 24290259#0 24290259#1 24290259#2 24290259#3 24290264 24290260#9 24290260#10 24290260#11 24290260#12"/>
    </vehicle>
    <vehicle id="14" depart="14.00">
        <route edges="296873607#0 296873607#1 133453375#1 133453375#2 133453375#3 133453375#4 133453375#5 133453375#6 133453375#7 100947968#0 1102703285 1102703292 283795443 1102703297#0-AddedOnRampEdge 1102703297#0 1102703297#1 1102703297#2 1102703297#3 1102703297#4 24290821#0 24290821#1"/>
    </vehicle>
    <vehicle id="15" depart="15.00">
        <route edges="1388460333#0 1388460333#1 24155860#0 24155860#1 24155860#2 24155860#3 24155860#3-AddedOffRampEdge 24155860#4 567054960 24155863 1408874113#0 1408874113#1 133453375#1 133453375#2 133453375#3 133453375#4 133453375#5 133453375#6 133453375#7 1101180319#0 119131779 1102703294 119131763#0 119131763#1 119131763#2 119131763#3 119131763#4 119131763#5-AddedOnRampEdge 119131763#5 119131763#6 119131763#7 119131763#8 119131763#9 24178353 398394926#1-AddedOnRampEdge 398394926#1 398394926#1-AddedOffRampEdge 398394926#2 24156174#0-AddedOnRampEdge 24156174#0 24156174#1 24156174#2 24156174#3 24156174#4 24156174#5 24156174#6 24206729#0 24206729#1 24206736#0 24206736#1 24206736#2"/>
    </vehicle>
    <vehicle id="16" depart="16.00">
        <route edges="398394920#2-AddedOffRampEdge 100947929 119131763#5-AddedOnRampEdge 119131763#5 119131763#6 119131763#7 119131763#8 119131763#9 119131763#10 398394925#0 398394925#1 1156266101 398394921#1 398394921#2 398394924#0 398394924#1-AddedOnRampEdge 398394924#1 24156180#0-AddedOnRampEdge 24156180#0 396594035 396594036#0 91673848#6 91673848#7 91673848#8 24290259#0 24290259#1 24290259#2 473048820 24290269#0 24290269#1"/>
    </vehicle>
    <vehicle id="17" depart="17.00">
        <route edges="398649476#3 398649476#3-AddedOffRampEdge 24178363#0 24178363#1 24178363#2 24178363#3 24178363#4 24178363#5 24178363#6 24178363#7 24178363#8 399098934#5-AddedOnRampEdge 399098934#5 399098934#5-AddedOffRampEdge 399098934#6 683444394 24156180#0-AddedOnRampEdge 24156180#0 24156180#1 24156180#2-AddedOnRampEdge 24156180#2 -518964924#5 -518964924#4 -518964924#3 -518964924#2 -518964924#1 24290242#0 24290252#0"/>
    </vehicle>
    <vehicle id="18" depart="18.00">
        <route edges="24290803#2 24290803#3 24290803#4 24290803#5 24290803#6 24290803#7 24290803#8 24290803#9 24290803#10 1153744905 432412031#7 432412031#8 432412031#9 432412031#10 432412031#11 521656219 434375951#5-AddedOnRampEdge 434375951#5 434375951#5-AddedOffRampEdge 24156191#0 24156191#0-AddedOffRampEdge 24156191#1 398394919#0 398394919#1 1156266100 398394925#1 398394925#2 398394922#0 398394922#1-AddedOnRampEdge 398394922#1 479334666 80576090#2 -24178367#4 -24178367#3"/>
    </vehicle>
    <vehicle id="19" depart="19.00">
        <route edges="-472699953#1 24206374#1 24206374#2 24206374#3 24206374#4 24206374#5 24206374#6 24206374#7 24206374#8 24206374#9 24206374#10 1102703281#3-AddedOnRampEdge 1102703281#3 1102703281#4 638365384#0 1102703293 119131754 1102703285"/>
    </vehicle>
    <vehicle id="20" depart="20.00">
        <route edges="-24290244#3 -24290244#2 -24290244#1 -24290244#0 -24290258#3 -24290258#2 24290273 24290260#7 24290263 24290259#5 24290259#6 24290259#7 24290259#8 24290259#9 24290259#10 24290259#11 24290259#12 24290259#13 24290259#14 24290259#15 24290245#1 24290245#2 24290245#3 398649474#0 398649474#1-AddedOnRampEdge 398649474#1 398649474#1-AddedOffRampEdge 398649474#2 398394923#0 398394923#1 1156266099 398394919#1 398394919#2 398394926#0 398394926#1-AddedOnRampEdge 398394926#1 398394926#1-AddedOffRampEdge 398394926#2 24156174#0-AddedOnRampEdge 24156174#0 24156174#1 24156174#2 24206722#0 24206722#2 -472699953#4"/>
    </vehicle>
    <vehicle id="21" depart="21.00">
        <route edges="-24290766#4 -24290769#1 -24290769#0 -24290765#3 -24290765#2 -24290765#1 -24290765#0 24290763#3 24290763#5 684871068 24290764#7 24290764#8 24290764#9 24290764#10 24290764#11 434375951#3-AddedOnRampEdge 434375951#3 434375951#3-AddedOffRampEdge 434375951#4 434375951#5-AddedOnRampEdge 434375951#5 434375951#5-AddedOffRampEdge 683444396 24156174#0-AddedOnRampEdge 24156174#0 24156174#1 24156174#2 24206722#0 24206722#2 24206722#3 24206722#5 1102703278#4 1102703280 1102703282 1102703281#0"/>
    </vehicle>
    <vehicle id="22" depart="22.00">
        <route edges="24290764#2 24290764#4 24290786#0 24290786#1 24290786#3 24290786#4 24290786#6 24290786#7 24290783#6 24290783#7 24290783#8 24290783#9 432412032 432412029#0 432412029#1 1102705191#1 1102705191#2-AddedOnRampEdge 1102705191#2 1102705189#0 1102705189#1 1102705189#2 1102705189#3 1102705189#4 1101027372#0 1101027372#1 119131770#2 119131770#3 119131770#4 119131770#5 119131770#7 119131770#8 119131770#9"/>
    </vehicle>
    <vehicle id="23" depart="23.00">
        <route edges="133453375#2 133453375#3 133453375#4 133453375#5 133453375#6 100947938 119131770#4 119131770#5 119131770#7 119131770#8 119131770#9 119131770#10 -24293430#1 -24293430#0"/>
    </vehicle>
    <vehicle id="24" depart="24.00">
        <route edges="1101027373 567054960 24155863 1408874113#0 1408874113#1 133453375#1 133453375#2 133453375#3 133453375#4 133453375#5 133453375#6 133453375#7 1101180319#0 119131779 1102703294 119131763#0 119131763#1 119131763#2 119131763#3 119131763#4 119131763#5-AddedOnRampEdge 119131763#5 119131763#6 119131763#7 119131763#8 119131763#9 119131763#10 398394925#0 398394925#1 1156266101 398394921#1 398394921#2 398394924#0 398394924#1-AddedOnRampEdge 398394924#1 24156180#0-AddedOnRampEdge 24156180#0 396594035 396594036#0 91673848#6 91673848#7 91673848#8 24290259#0 24290259#1 24290259#2 473048820"/>
    </vehicle>
    <vehicle id="25" depart="25.00">
        <route edges="24290766#5 24290763#9 24290763#10 24290763#11 24290763#12 480573841 24290764#1 24290764#2 24290764#4 24290764#6 24290764#7 24290764#8 24290764#9 24290764#10 24290764#11 434375951#3-AddedOnRampEdge 434375951#3 434375951#3-AddedOffRampEdge 434375951#4 434375951#5-AddedOnRampEdge 434375951#5 434375951#5-AddedOffRampEdge 24156191#0 24156191#0-AddedOffRampEdge 24156191#1 398394919#0 398394919#1 1156266100 398394925#1 1156266101 398394921#1 398394921#2 398394924#0 398394924#1-AddedOnRampEdge 398394924#1 24156180#0-AddedOnRampEdge 24156180#0 396594035 396594036#0 91673848#6 24290258#0 24290258#1 24290273 24290260#7"/>
    </vehicle>
    <vehicle id="26" depart="26.00">
        <route edges="-24293399#3 -24293399#2 -24293399#1 -170931392#5 -170931392#4 -170931392#3 -170931392#2 -170931392#1 -170931392#0 170931413 493251574#0 493251574#1 493251574#2 1102705192#0 1102705192#1 432412029#0 432412029#1 1102705191#1 1102705191#2-AddedOnRampEdge 1102705191#2 1102705189#0 1102705189#1 1102705189#2 1102705189#3 1102705189#4 394129882 1102703285 1102703292 283795443 1102703297#0-AddedOnRampEdge 1102703297#0 1102703297#1 1102703297#2 1102703297#3 1102703297#4 24290821#0 24290821#1"/>
    </vehicle>
    <vehicle id="27" depart="27.00">
        <route edges="80576090#3 80576090#5 24178378#1 24178380#1 -24178375#0 398394922#8 398394922#8-AddedOffRampEdge 398394922#9 398649477 398649474#0 398649474#1-AddedOnRampEdge 398649474#1 398649474#1-AddedOffRampEdge 398649474#2 398394923#0 398394923#1 398394923#2 398394920#0 398394920#1-AddedOnRampEdge 398394920#1 398394920#2 398394920#2-AddedOffRampEdge 398394920#3 398394920#4 398394920#5 398394920#5-AddedOffRampEdge 100947953 1102703297#0-AddedOnRampEdge 1102703297#0 1102703297#1 1102703297#2 1102703297#3 1102703297#4 1102703297#6 1102703297#7 1102703297#8 432412033#0 432412033#1 432412033#2 432412033#3 432412033#4 24290764#0 24290764#1 24290764#2 24290764#4 24290764#6"/>
    </vehicle>
    <vehicle id="28" depart="28.00">
        <route edges="24290242#1 24290242#2 -396594036#5 24290257#0 24290257#1 24290258#1 24290258#2 24290258#3 24290244#0 24290244#1 24290244#2 24290244#3 24290245#0 24290245#1 24290245#2 24290245#3 398649474#0 398649474#1-AddedOnRampEdge 398649474#1 398649474#1-AddedOffRampEdge 398649474#2 398394923#0 398394923#1 398394923#2 398394920#0 398394920#1-AddedOnRampEdge 398394920#1 398394920#2 398394920#2-AddedOffRampEdge 398394920#3 398394920#4 398394920#5 398394920#5-AddedOffRampEdge 100947953 1102703297#0-AddedOnRampEdge 1102703297#0 1153744911 -24290802#11 -24290802#10 -24290802#8 -24290802#7 -24290802#6 -24290802#5 -24290802#4 -24290802#3 -24290802#1 -24290802#0 24290799#0 24290799#1"/>
    </vehicle>
    <vehicle id="29" depart="29.00">
        <route edges="398394922#9 398649477 398649474#0 398649474#1-AddedOnRampEdge 398649474#1 398649474#1-AddedOffRampEdge 398649474#2 398394923#0 398394923#1 398394923#2 398394920#0 398394920#1-AddedOnRampEdge 398394920#1 398394920#2 398394920#2-AddedOffRampEdge 398394920#3 398394920#4 398394920#5 398394920#5-AddedOffRampEdge 398394920#6 1102703295 1101027372#0 1101027372#1 24293423#0 24293423#1 24293424#12 203696371 24293425#1"/>
    </vehicle>
    <vehicle id="30" depart="30.00">
        <route edges="1117599683#1 24178363#6 24178363#7 24178363#8 399098934#5-AddedOnRampEdge 399098934#5 399098934#5-AddedOffRampEdge 399098934#6 24156192#0 24156192#0-AddedOffRampEdge 24156192#1 398394921#0 398394921#1 1156266098 398394923#1 398394923#2 398394920#0 398394920#1-AddedOnRampEdge 398394920#1 398394920#2 398394920#2-AddedOffRampEdge 398394920#3 398394920#4 398394920#5 398394920#5-AddedOffRampEdge 398394920#6 1102703295 1101027372#0"/>
    </vehicle>
    <vehicle id="31" depart="31.00">
        <route edges="-24293437#1 -170931647 -232769575#4 -744481082 1102705189#0 1102705189#1 1102705189#2 1102705189#3 1102705189#4 394129882 1102703287 119131779 1102703294 119131763#0 119131763#1 119131763#2 119131763#3 119131763#4 119131763#5-AddedOnRampEdge 119131763#5 119131763#6 119131763#7 119131763#8 119131763#9 24178353 398394926#1-AddedOnRampEdge 398394926#1 398394926#1-AddedOffRampEdge 398394926#2 24156174#0-AddedOnRampEdge 24156174#0 24156174#1 24156174#2 24156174#3 24156174#4 24156174#5 24156174#6 24206729#0 24206729#1 24206729#3 24206729#4 24206729#5 24206729#6 1152396769 -24206731#3 -24206731#1 -24206731#0 479181263#2 479181263#3 479181262#0"/>
    </vehicle>
    <vehicle id="32" depart="32.00">
        <route edges="402014041#0 402014041#0-AddedOffRampEdge 402014041#2 432411739#0 432411739#2 432411739#3 1102705197#1 1102705197#2 1102705197#3 1102705197#4 493251574#0 24293415 170931598 1102705194#1"/>
    </vehicle>
    <vehicle id="33" depart="33.00">
        <route edges="24290783#2 24290783#3 24290783#4 24290783#6 24290783#7 24290783#8 265566029 432412033#1 432412033#2 432412033#3 432412033#4 432412033#5 432412033#6 432412033#7 432412033#8 132911086 432411739#3 1102705197#1 170931435 170931457 170931391#2"/>
    </vehicle>
    <vehicle id="34" depart="34.00">
        <route edges="1101027372#0 1101027372#1 24293423#0 24293423#1 24293424#12 24293424#13 1102705189#2 1102705189#3 1102705189#4 394129882 1102703287 119131779 1102703294 119131763#0 119131763#1 119131763#2 119131763#3 119131763#4 119131763#5-AddedOnRampEdge 119131763#5 119131763#6 119131763#7 119131763#8 119131763#9 119131763#10 398394925#0 398394925#1 1156266101 398394921#1 398394921#2 398394924#0 398394924#1-AddedOnRampEdge 398394924#1 24156180#0-AddedOnRampEdge 24156180#0 24156180#1 24156180#2-AddedOnRampEdge 24156180#2 -518964924#5"/>
    </vehicle>
    <vehicle id="35" depart="35.00">
        <route edges="24290243#3 518964924#3 518964924#4 91673848#5 91673848#6 91673848#7 91673848#8 91673848#9 24290245#2 24290245#3 398649474#0 398649474#1-AddedOnRampEdge 398649474#1 398649474#1-AddedOffRampEdge 398649474#2 398394923#0 398394923#1 398394923#2 398394920#0 398394920#1-AddedOnRampEdge 398394920#1 398394920#2 398394920#2-AddedOffRampEdge 398394920#3 398394920#4 398394920#5 398394920#5-AddedOffRampEdge 398394920#6 1102703295 1101027372#0 1101027372#1 24293423#0 24293423#1 24293424#12 24293424#13 1102705189#2 100947954#0"/>
    </vehicle>
    <vehicle id="36" depart="36.00">
        <route edges="24290259#0 24290259#1 24290259#2 24290259#3 24290259#4 24290259#5 24290259#6 24290259#7 24290259#8 24290259#9 24290259#10 24290259#11 24290259#12 24290259#13 24290259#14 24290259#15 24290245#1 24290245#2 24290245#3 398649474#0 398649474#1-AddedOnRampEdge 398649474#1 398649474#1-AddedOffRampEdge 398649474#2 398394923#0 398394923#1 398394923#2 398394920#0 398394920#1-AddedOnRampEdge 398394920#1 398394920#2 398394920#2-AddedOffRampEdge 398394920#3 398394920#4 398394920#5 398394920#5-AddedOffRampEdge 100947953 1102703297#0-AddedOnRampEdge 1102703297#0 1102703297#1 1102703297#2 1102703297#3 1102703297#4 1102703297#6 1102703297#7 1102703297#8 432412031#0"/>
    </vehicle>
    <vehicle id="37" depart="37.00">
        <route edges="170931392#4 170931392#5 24293399#1 24293399#2 24293399#3 24293399#4 24293399#5 24293399#6 24293399#7 24293422 24293420#5 24293420#6 24293420#1 24290784#0 24290784#1 24290784#2 24290784#3 24290784#3-AddedOffRampEdge 265566027 432412029#1 -24293438#1 -24293438#0 130855760 -24293441"/>
    </vehicle>
    <vehicle id="38" depart="38.00">
        <route edges="91673848#6 91673848#7 91673848#8 91673848#9 24290245#2 24290245#3 398649474#0 398649474#1-AddedOnRampEdge 398649474#1 398649474#1-AddedOffRampEdge 398649474#2 398394923#0 398394923#1 1156266099 398394919#1 398394919#2 398394926#0 398394926#1-AddedOnRampEdge 398394926#1 398394926#1-AddedOffRampEdge 263351300#0 24206374#0 24206374#1 24206374#2 24206374#3 24206374#4 24206374#5 24206374#6 24206374#7 24206374#8 24206374#9"/>
    </vehicle>
    <vehicle id="39" depart="39.00">
        <route edges="-24290269#0 -473048820 24290259#3 24290259#4 24290259#5 24290259#6 24290259#7 24290259#8 24290259#9 24290259#10 24290259#11 24290259#12 24290259#13 24290259#14 24290259#15 24290245#1 24290245#2 24290245#3 398649474#0 398649474#1-AddedOnRampEdge 398649474#1 398649474#1-AddedOffRampEdge 398649474#2 398394923#0 398394923#1 1156266099 398394919#1 1156266100 398394925#1 398394925#2 398394922#0 398394922#1-AddedOnRampEdge 398394922#1 479334666 80576090#2 -24178367#4"/>
    </vehicle>
    <vehicle id="40" depart="40.00">
        <route edges="-24290785#2 24290790#0 24290790#1 -24290786#4 -24290786#3 24290791#0 24290791#1 24290785#4 24290785#5 744479995 24290764#10 480573840 24290763#1 24290763#3 24290763#5 24290763#6 24290763#7 24290763#9 24290763#10"/>
    </vehicle>
    <vehicle id="41" depart="41.00">
        <route edges="91673848#5 91673848#6 91673848#7 91673848#8 91673848#9 24290245#2 24290245#3 398649474#0 398649474#1-AddedOnRampEdge 398649474#1 398649474#1-AddedOffRampEdge 398649474#2 398394923#0 398394923#1 1156266099 398394919#1 398394919#2 398394926#0 398394926#1-AddedOnRampEdge 398394926#1 398394926#1-AddedOffRampEdge 398394926#2 24156174#0-AddedOnRampEdge 24156174#0 24156174#1 24156174#2 24206722#0 24206722#2 24206722#3 24206722#5 1102703278#4 1102703280 1102703282 1102703281#0 1102703281#1 24206724#0 24206724#1 24206724#2 24206724#3 24206724#4 24206724#5 24206724#6"/>
    </vehicle>
    <vehicle id="42" depart="42.00">
        <route edges="-117208334#0 -24290799#5 117208322#0 117208322#1 117208322#2 117208322#3 -24290816#5 -24290821#2 -24290821#1 -24290821#0 1102703297#6 1102703297#7 265566026 432412031#1 24290816#0 24290816#1"/>
    </vehicle>
    <vehicle id="43" depart="43.00">
        <route edges="24290799#0 24290799#1 24290799#2 24290799#3 24290799#4 24290799#5 24290799#6 24290799#7 1153744901 432412031#11 521656219 434375951#5-AddedOnRampEdge 434375951#5 434375951#5-AddedOffRampEdge 683444396 24156174#0-AddedOnRampEdge 24156174#0 24156174#1 24156174#2 24156174#3 24156174#4 24156174#5 24156174#6 24206729#0 24206729#1 24206729#3 24206729#4 24206729#5 24206729#6 1152396769 -24206731#3 -24206731#1 -24206731#0 479181263#2 479181263#3 479181263#4 479181263#5 479181263#1 24206731#0 24206731#1 24206731#3 24206727#0 24206728#0 24206728#1 24206728#2"/>
    </vehicle>
    <vehicle id="44" depart="44.00">
        <route edges="1101027373 567054960 24155863 1408874113#0 1408874113#1 133453375#1 133453375#2 133453375#3 133453375#4 133453375#5 133453375#6 133453375#7 100947968#0 1102703285 1102703292 283795443 1102703297#0-AddedOnRampEdge 1102703297#0 1102703297#1 1102703297#2 1102703297#3 1102703297#4 1102703297#6 1102703297#7 1102703297#8 432412033#0 432412033#1 432412033#2 432412033#3 432412033#4 24290764#0 24290764#1 24290764#2 24290764#4 24290764#6 24290764#7"/>
    </vehicle>
    <vehicle id="45" depart="45.00">
        <route edges="-24290785#4 -24290791#1 -24290791#0 -24290786#1 -24290786#0 24290764#6 24290764#7 24290764#8 24290764#9 24290764#10 24290764#11 434375951#3-AddedOnRampEdge 434375951#3 434375951#3-AddedOffRampEdge 434375951#4 434375951#5-AddedOnRampEdge 434375951#5 434375951#5-AddedOffRampEdge 24156191#0 24156191#0-AddedOffRampEdge 24156191#1 398394919#0 398394919#1 1156266100 398394925#1 1156266101 398394921#1 398394921#2 398394924#0 398394924#1-AddedOnRampEdge 398394924#1 24156180#0-AddedOnRampEdge"/>
    </vehicle>
    <vehicle id="46" depart="46.00">
        <route edges="24178358#1 472699948#1 472699955 24178369#1 24178369#2 24178369#3 24178369#4 24178369#5 24178369#6 24178363#7 24178363#8 399098934#5-AddedOnRampEdge 399098934#5 399098934#5-AddedOffRampEdge 399098934#6 24156192#0 24156192#0-AddedOffRampEdge 24156192#1 398394921#0 398394921#1 1156266098 398394923#1 398394923#2 398394920#0 398394920#1-AddedOnRampEdge 398394920#1 398394920#2 398394920#2-AddedOffRampEdge 398394920#3 398394920#4 398394920#5 398394920#5-AddedOffRampEdge 100947953 1102703297#0-AddedOnRampEdge 1102703297#0 1102703297#1 1102703297#2 1102703297#3 1102703297#4 1102703297#6 1102703297#7 1102703297#8 432412032 432412027#0 432412027#1-AddedOnRampEdge 432412027#1 24293413#0 24293413#1 24293413#2 24293413#3 24293413#4 24293413#5 24293413#6 24293413#7 24293413#8 482289694#4 482289694#4-AddedOffRampEdge"/>
    </vehicle>
    <vehicle id="47" depart="47.00">
        <route edges="402014041#0 402014041#0-AddedOffRampEdge 402014041#2 432411739#0 432411739#2 432411739#3 1102705197#1 1102705197#2 1102705197#3 1102705197#4 493251574#0 493251574#1 493251574#2 1102705192#0 1102705192#1 432412029#0 432412029#1 1102705191#1 1102705191#2-AddedOnRampEdge 1102705191#2 1102705189#0 1102705189#1 1102705189#2 1102705189#3 1102705189#4 1101027372#0 1101027372#1 119131770#2 119131770#3 119131770#4 119131770#5 119131770#7 119131770#8 296873607#0 296873607#1 133453375#1 133453375#2 133453375#3 133453375#4 133453375#5 133453375#6 133453375#7 100947962"/>
    </vehicle>
    <vehicle id="48" depart="48.00">
        <route edges="24206374#2 24206374#3 24206374#4 24206374#5 24206374#6 24206374#7 24206374#8 24206374#9 24206374#10 1102703281#3-AddedOnRampEdge 1102703281#3 1102703281#4 1101027371#0 1101027371#1 1101027371#2 432416071 1102703290 283795443 1102703297#0-AddedOnRampEdge 1102703297#0 1102703297#1 1102703297#2 1102703297#3 1102703297#4 1102703297#6 1102703297#7 1102703297#8 432412032 432412027#0 432412027#1-AddedOnRampEdge 432412027#1 432412027#3 432412027#4 432412027#5 24293420#3 24293421 -24293399#7 -24293399#6 -24293399#5 -24293399#4 -24293399#3 -24293399#2 -24293401 -24293400#1 -24293400#0"/>
    </vehicle>
    <vehicle id="49" depart="49.00">
        <route edges="432412033#8 132911086 432411739#3 1102705197#1 1102705197#2 1102705197#3 1102705197#4 493251574#0 493251574#1 493251574#2 1102705192#0 1102705192#1 432412029#0 432412029#1 1102705191#1 1102705191#2-AddedOnRampEdge 1102705191#2 1102705189#0 1102705189#1 1102705189#2 1102705189#3 1102705189#4 394129882 1102703287 119131779 1102703294 119131763#0 119131763#1 119131763#2 119131763#3 119131763#4 119131763#5-AddedOnRampEdge 119131763#5 119131763#6 119131763#7 119131763#8 119131763#9 119131763#10 398394925#0 398394925#1 398394925#2 398394922#0 398394922#1-AddedOnRampEdge 398394922#1 398394922#3 398394922#4 398394922#5 398394922#6 398394922#8 398394922#8-AddedOffRampEdge 398394922#9 1300452949 398649478#0-AddedOnRampEdge 398649478#0 398649478#2 398649478#3"/>
    </vehicle>
</routes>
