<?xml version="1.0" encoding="UTF-8"?>

<!-- generated on 2026-03-27T12:44:32.579873+04:00 by Eclipse SUMO netconvert 1.26.0
<netconvertConfiguration xmlns:xsi="http://www.w3.org/2001/XMLSchema-instance" xsi:noNamespaceSchemaLocation="http://sumo.dlr.de/xsd/netconvertConfiguration.xsd">

    <input>
        <osm-files value="/Users/karimboubouh/Workspace/R/sumo/scenarios/abu_dhabi_corniche/map.osm"/>
    </input>

    <output>
        <output-file value="/Users/karimboubouh/Workspace/R/sumo/scenarios/abu_dhabi_corniche/network.net.xml"/>
    </output>

    <projection>
        <proj.utm value="true"/>
    </projection>

    <processing>
        <geometry.remove value="true"/>
        <offset.disable-normalization value="true"/>
    </processing>

    <tls_building>
        <tls.discard-simple value="true"/>
        <tls.join value="true"/>
        <tls.guess-signals value="true"/>
    </tls_building>

    <ramp_guessing>
        <ramps.guess value="true"/>
    </ramp_guessing>

    <junctions>
        <no-turnarounds value="true"/>
        <junctions.join value="true"/>
    </junctions>

</netconvertConfiguration>
-->

<net version="1.20" junctionCornerDetail="5" limitTurnSpeed="5.50" xmlns:xsi="http://www.w3.org/2001/XMLSchema-instance" xsi:noNamespaceSchemaLocation="http://sumo.dlr.de/xsd/net_file.xsd">

    <location netOffset="0.00,0.00" convBoundary="230859.08,2706618.29,233827.35,2708961.98" origBoundary="54.344745,24.450359,54.374412,24.471032" projParameter="+proj=utm +zone=40 +ellps=WGS84 +datum=WGS84 +units=m +no_defs"/>

    <type id="highway.primary" priority="12" numLanes="2" speed="27.78" disallow="tram rail_urban rail rail_electric rail_fast ship container cable_car subway aircraft wheelchair scooter drone" oneway="0"/>
    <type id="highway.primary_link" priority="7" numLanes="1" speed="22.22" disallow="tram rail_urban rail rail_electric rail_fast ship container cable_car subway aircraft wheelchair scooter drone" oneway="0"/>
    <type id="highway.residential" priority="3" numLanes="1" speed="13.89" disallow="tram rail_urban rail rail_electric rail_fast ship container cable_car subway aircraft wheelchair scooter drone" oneway="0"/>
    <type id="highway.secondary" priority="11" numLanes="1" speed="27.78" disallow="tram rail_urban rail rail_electric rail_fast ship container cable_car subway aircraft wheelchair scooter drone" oneway="0"/>
    <type id="highway.secondary_link" priority="6" numLanes="1" speed="22.22" disallow="tram rail_urban rail rail_electric rail_fast ship container cable_car subway aircraft wheelchair scooter drone" oneway="0"/>
    <type id="highway.service" priority="1" numLanes="1" speed="5.56" allow="pedestrian delivery bicycle" oneway="0"/>
    <type id="highway.tertiary" priority="10" numLanes="1" speed="22.22" disallow="tram rail_urban rail rail_electric rail_fast ship container cable_car subway aircraft wheelchair scooter drone" oneway="0"/>
    <type id="highway.tertiary_link" priority="5" numLanes="1" speed="22.22" disallow="tram rail_urban rail rail_electric rail_fast ship container cable_car subway aircraft wheelchair scooter drone" oneway="0"/>
    <type id="highway.trunk" priority="13" numLanes="2" speed="27.78" disallow="pedestrian bicycle tram rail_urban rail rail_electric rail_fast ship container cable_car subway aircraft wheelchair scooter drone" oneway="0"/>
    <type id="highway.trunk_link" priority="8" numLanes="1" speed="22.22" disallow="pedestrian bicycle tram rail_urban rail rail_electric rail_fast ship container cable_car subway aircraft wheelchair scooter drone" oneway="0"/>

    <edge id=":10316881733_0" function="internal">
        <lane id=":10316881733_0_0" index="0" allow="pedestrian delivery bicycle" speed="9.57" length="7.63" shape="233352.55,2707357.87 233352.38,2707355.59 233352.26,2707353.93 233351.70,2707352.51 233350.22,2707350.94"/>
    </edge>
    <edge id=":10316881733_1" function="internal">
        <lane id=":10316881733_1_0" index="0" disallow="tram rail_urban rail rail_electric rail_fast ship container cable_car subway aircraft wheelchair scooter drone" speed="22.22" length="7.73" shape="233356.13,2707355.92 233350.22,2707350.94"/>
        <lane id=":10316881733_1_1" index="1" disallow="tram rail_urban rail rail_electric rail_fast ship container cable_car subway aircraft wheelchair scooter drone" speed="22.22" length="7.73" shape="233358.19,2707353.48 233352.29,2707348.49"/>
        <lane id=":10316881733_1_2" index="2" disallow="tram rail_urban rail rail_electric rail_fast ship container cable_car subway aircraft wheelchair scooter drone" speed="22.22" length="7.73" shape="233360.25,2707351.03 233354.35,2707346.05"/>
    </edge>
    <edge id=":1038949780_0" function="internal">
        <lane id=":1038949780_0_0" index="0" disallow="pedestrian bicycle tram rail_urban rail rail_electric rail_fast ship container cable_car subway aircraft wheelchair scooter drone" speed="22.22" length="3.22" shape="231894.49,2707378.79 231892.37,2707381.28"/>
        <lane id=":1038949780_0_1" index="1" disallow="pedestrian bicycle tram rail_urban rail rail_electric rail_fast ship container cable_car subway aircraft wheelchair scooter drone" speed="22.22" length="3.22" shape="231892.03,2707376.73 231889.95,2707379.19"/>
        <lane id=":1038949780_0_2" index="2" disallow="pedestrian bicycle tram rail_urban rail rail_electric rail_fast ship container cable_car subway aircraft wheelchair scooter drone" speed="22.22" length="3.22" shape="231889.58,2707374.68 231887.53,2707377.10"/>
    </edge>
    <edge id=":1038949780_3" function="internal">
        <lane id=":1038949780_3_0" index="0" disallow="pedestrian bicycle tram rail_urban rail rail_electric rail_fast ship container cable_car subway aircraft wheelchair scooter drone" speed="22.22" length="3.33" shape="231896.80,2707380.73 231896.24,2707381.54 231895.85,2707382.09 231895.43,2707382.62 231894.79,2707383.38"/>
    </edge>
    <edge id=":1038949784_0" function="internal">
        <lane id=":1038949784_0_0" index="0" disallow="pedestrian bicycle tram rail_urban rail rail_electric rail_fast ship container cable_car subway aircraft wheelchair scooter drone" speed="11.34" length="12.93" shape="231944.34,2707337.23 231944.55,2707340.83 231945.34,2707344.01 231946.69,2707346.74 231948.61,2707349.03"/>
    </edge>
    <edge id=":1038949784_1" function="internal">
        <lane id=":1038949784_1_0" index="0" disallow="pedestrian tram rail_urban rail rail_electric rail_fast ship container cable_car subway aircraft wheelchair scooter drone" speed="22.22" length="12.96" shape="231938.93,2707340.32 231948.61,2707349.03"/>
        <lane id=":1038949784_1_1" index="1" disallow="pedestrian tram rail_urban rail rail_electric rail_fast ship container cable_car subway aircraft wheelchair scooter drone" speed="22.22" length="12.96" shape="231936.79,2707342.69 231946.42,2707351.37"/>
        <lane id=":1038949784_1_2" index="2" disallow="pedestrian tram rail_urban rail rail_electric rail_fast ship container cable_car subway aircraft wheelchair scooter drone" speed="22.22" length="12.96" shape="231934.64,2707345.06 231944.22,2707353.70"/>
    </edge>
    <edge id=":1038949794_0" function="internal">
        <lane id=":1038949794_0_0" index="0" disallow="pedestrian tram rail_urban rail rail_electric rail_fast ship container cable_car subway aircraft wheelchair scooter drone" speed="22.22" length="3.43" shape="231877.33,2707316.93 231874.83,2707314.61"/>
        <lane id=":1038949794_0_1" index="1" disallow="pedestrian tram rail_urban rail rail_electric rail_fast ship container cable_car subway aircraft wheelchair scooter drone" speed="22.22" length="3.43" shape="231879.51,2707314.59 231877.00,2707312.26"/>
        <lane id=":1038949794_0_2" index="2" disallow="pedestrian tram rail_urban rail rail_electric rail_fast ship container cable_car subway aircraft wheelchair scooter drone" speed="22.22" length="3.43" shape="231881.70,2707312.25 231879.17,2707309.91"/>
    </edge>
    <edge id=":1038949794_3" function="internal">
        <lane id=":1038949794_3_0" index="0" disallow="pedestrian bicycle tram rail_urban rail rail_electric rail_fast ship container cable_car subway aircraft wheelchair scooter drone" speed="22.22" length="3.42" shape="231875.38,2707319.02 231874.54,2707318.46 231873.96,2707318.07 231873.41,2707317.64 231872.66,2707316.96"/>
    </edge>
    <edge id=":1038949797_0" function="internal">
        <lane id=":1038949797_0_0" index="0" disallow="pedestrian bicycle tram rail_urban rail rail_electric rail_fast ship container cable_car subway aircraft wheelchair scooter drone" speed="22.22" length="0.10" shape="231910.69,2707299.71 231910.69,2707299.71"/>
    </edge>
    <edge id=":1038949799_0" function="internal">
        <lane id=":1038949799_0_0" index="0" disallow="pedestrian bicycle tram rail_urban rail rail_electric rail_fast ship container cable_car subway aircraft wheelchair scooter drone" speed="9.88" length="2.74" shape="231867.49,2707366.48 231868.00,2707365.85 231868.38,2707365.43 231868.83,2707365.10 231869.54,2707364.72"/>
    </edge>
    <edge id=":1038949799_1" function="internal">
        <lane id=":1038949799_1_0" index="0" disallow="pedestrian bicycle tram rail_urban rail rail_electric rail_fast ship container cable_car subway aircraft wheelchair scooter drone" speed="16.66" length="3.22" shape="231869.97,2707368.50 231872.16,2707365.94"/>
        <lane id=":1038949799_1_1" index="1" disallow="pedestrian bicycle tram rail_urban rail rail_electric rail_fast ship container cable_car subway aircraft wheelchair scooter drone" speed="16.66" length="3.22" shape="231872.45,2707370.52 231874.54,2707368.07"/>
        <lane id=":1038949799_1_2" index="2" disallow="pedestrian bicycle tram rail_urban rail rail_electric rail_fast ship container cable_car subway aircraft wheelchair scooter drone" speed="16.66" length="3.22" shape="231874.94,2707372.54 231876.93,2707370.20"/>
    </edge>
    <edge id=":1038949802_0" function="internal">
        <lane id=":1038949802_0_0" index="0" disallow="pedestrian bicycle tram rail_urban rail rail_electric rail_fast ship container cable_car subway aircraft wheelchair scooter drone" speed="27.78" length="3.35" shape="231936.43,2707291.41 231938.59,2707288.85"/>
        <lane id=":1038949802_0_1" index="1" disallow="pedestrian bicycle tram rail_urban rail rail_electric rail_fast ship container cable_car subway aircraft wheelchair scooter drone" speed="27.78" length="3.35" shape="231938.87,2707293.47 231941.03,2707290.92"/>
        <lane id=":1038949802_0_2" index="2" disallow="pedestrian bicycle tram rail_urban rail rail_electric rail_fast ship container cable_car subway aircraft wheelchair scooter drone" speed="27.78" length="3.35" shape="231941.32,2707295.54 231943.47,2707292.99"/>
    </edge>
    <edge id=":1038949802_3" function="internal">
        <lane id=":1038949802_3_0" index="0" disallow="pedestrian bicycle tram rail_urban rail rail_electric rail_fast ship container cable_car subway aircraft wheelchair scooter drone" speed="25.00" length="3.37" shape="231934.12,2707289.47 231934.69,2707288.65 231935.09,2707288.09 231935.51,2707287.55 231936.15,2707286.78"/>
    </edge>
    <edge id=":1038949805_0" function="internal">
        <lane id=":1038949805_0_0" index="0" disallow="pedestrian bicycle tram rail_urban rail rail_electric rail_fast ship container cable_car subway aircraft wheelchair scooter drone" speed="22.22" length="3.34" shape="231947.30,2707389.15 231946.65,2707388.40 231946.18,2707387.91 231945.67,2707387.46 231944.88,2707386.86"/>
    </edge>
    <edge id=":1038949805_1" function="internal">
        <lane id=":1038949805_1_0" index="0" disallow="pedestrian tram rail_urban rail rail_electric rail_fast ship container cable_car subway aircraft wheelchair scooter drone" speed="22.22" length="3.64" shape="231949.74,2707387.08 231947.46,2707384.55"/>
        <lane id=":1038949805_1_1" index="1" disallow="pedestrian tram rail_urban rail rail_electric rail_fast ship container cable_car subway aircraft wheelchair scooter drone" speed="22.22" length="3.64" shape="231952.18,2707385.01 231949.74,2707382.30"/>
        <lane id=":1038949805_1_2" index="2" disallow="pedestrian tram rail_urban rail rail_electric rail_fast ship container cable_car subway aircraft wheelchair scooter drone" speed="22.22" length="3.64" shape="231954.62,2707382.94 231952.03,2707380.06"/>
    </edge>
    <edge id=":1038949808_0" function="internal">
        <lane id=":1038949808_0_0" index="0" disallow="bicycle tram rail_urban rail rail_electric rail_fast ship container cable_car subway aircraft wheelchair scooter drone" speed="11.18" length="2.75" shape="231956.41,2707309.95 231955.91,2707310.60 231955.53,2707311.02 231955.10,2707311.37 231954.40,2707311.79"/>
    </edge>
    <edge id=":1038949808_1" function="internal">
        <lane id=":1038949808_1_0" index="0" disallow="pedestrian bicycle tram rail_urban rail rail_electric rail_fast ship container cable_car subway aircraft wheelchair scooter drone" speed="27.78" length="3.16" shape="231953.89,2707307.98 231951.83,2707310.53"/>
        <lane id=":1038949808_1_1" index="1" disallow="pedestrian bicycle tram rail_urban rail rail_electric rail_fast ship container cable_car subway aircraft wheelchair scooter drone" speed="27.78" length="3.16" shape="231951.36,2707306.01 231949.38,2707308.47"/>
        <lane id=":1038949808_1_2" index="2" disallow="pedestrian bicycle tram rail_urban rail rail_electric rail_fast ship container cable_car subway aircraft wheelchair scooter drone" speed="27.78" length="3.16" shape="231948.84,2707304.04 231946.92,2707306.42"/>
    </edge>
    <edge id=":1038949813_0" function="internal">
        <lane id=":1038949813_0_0" index="0" disallow="pedestrian bicycle tram rail_urban rail rail_electric rail_fast ship container cable_car subway aircraft wheelchair scooter drone" speed="22.22" length="0.26" shape="231944.44,2707332.56 231944.43,2707332.64 231944.42,2707332.69 231944.42,2707332.74 231944.42,2707332.82"/>
    </edge>
    <edge id=":1038949814_0" function="internal">
        <lane id=":1038949814_0_0" index="0" allow="pedestrian delivery bicycle" speed="9.76" length="8.32" shape="231980.49,2707379.04 231982.37,2707380.49 231983.96,2707381.00 231985.75,2707381.00 231988.23,2707380.89"/>
    </edge>
    <edge id=":1038949814_1" function="internal">
        <lane id=":1038949814_1_0" index="0" disallow="tram rail_urban rail rail_electric rail_fast ship container cable_car subway aircraft wheelchair scooter drone" speed="22.22" length="8.30" shape="231980.49,2707379.04 231986.56,2707384.70"/>
        <lane id=":1038949814_1_1" index="1" disallow="tram rail_urban rail rail_electric rail_fast ship container cable_car subway aircraft wheelchair scooter drone" speed="22.22" length="8.30" shape="231978.30,2707381.38 231984.37,2707387.04"/>
        <lane id=":1038949814_1_2" index="2" disallow="tram rail_urban rail rail_electric rail_fast ship container cable_car subway aircraft wheelchair scooter drone" speed="22.22" length="8.30" shape="231976.11,2707383.71 231982.19,2707389.38"/>
    </edge>
    <edge id=":1038949815_0" function="internal">
        <lane id=":1038949815_0_0" index="0" disallow="bicycle tram rail_urban rail rail_electric rail_fast ship container cable_car subway aircraft wheelchair scooter drone" speed="14.62" length="3.55" shape="231888.63,2707286.91 231889.16,2707287.82 231889.58,2707288.41 231890.09,2707288.93 231890.89,2707289.61"/>
    </edge>
    <edge id=":1038949815_1" function="internal">
        <lane id=":1038949815_1_0" index="0" disallow="pedestrian tram rail_urban rail rail_electric rail_fast ship container cable_car subway aircraft wheelchair scooter drone" speed="22.22" length="4.51" shape="231885.85,2707288.50 231886.38,2707289.45 231886.74,2707290.09 231887.19,2707290.68 231887.93,2707291.46"/>
        <lane id=":1038949815_1_1" index="1" disallow="pedestrian tram rail_urban rail rail_electric rail_fast ship container cable_car subway aircraft wheelchair scooter drone" speed="22.22" length="4.51" shape="231883.07,2707290.09 231883.73,2707291.25 231884.19,2707292.05 231884.75,2707292.77 231885.67,2707293.73"/>
        <lane id=":1038949815_1_2" index="2" disallow="pedestrian tram rail_urban rail rail_electric rail_fast ship container cable_car subway aircraft wheelchair scooter drone" speed="22.22" length="4.51" shape="231880.30,2707291.67 231881.08,2707293.06 231881.64,2707294.00 231882.32,2707294.86 231883.42,2707296.01"/>
    </edge>
    <edge id=":1040661907_0" function="internal">
        <lane id=":1040661907_0_0" index="0" disallow="tram rail_urban rail rail_electric rail_fast ship container cable_car subway aircraft wheelchair scooter drone" speed="11.11" length="9.47" shape="232859.33,2707226.00 232852.10,2707219.88"/>
    </edge>
    <edge id=":1040661907_1" function="internal">
        <lane id=":1040661907_1_0" index="0" allow="pedestrian delivery bicycle" speed="6.86" length="3.31" shape="232859.33,2707226.00 232857.46,2707223.93 232857.29,2707223.44"/>
    </edge>
    <edge id=":1040661907_6" function="internal">
        <lane id=":1040661907_6_0" index="0" allow="pedestrian delivery bicycle" speed="6.86" length="6.89" shape="232857.29,2707223.44 232856.71,2707221.75 232857.07,2707219.48 232858.56,2707217.10"/>
    </edge>
    <edge id=":1040661907_2" function="internal">
        <lane id=":1040661907_2_0" index="0" allow="pedestrian delivery bicycle" speed="5.04" length="5.02" shape="232861.00,2707219.17 232860.27,2707220.34 232860.09,2707221.45 232860.46,2707222.52 232861.38,2707223.55"/>
    </edge>
    <edge id=":1040661907_3" function="internal">
        <lane id=":1040661907_3_0" index="0" allow="pedestrian delivery bicycle" speed="6.85" length="10.20" shape="232861.00,2707219.17 232858.91,2707221.03 232856.73,2707221.77 232854.46,2707221.39 232852.10,2707219.88"/>
    </edge>
    <edge id=":1040661907_4" function="internal">
        <lane id=":1040661907_4_0" index="0" allow="pedestrian delivery bicycle" speed="5.03" length="5.01" shape="232854.19,2707217.45 232855.35,2707218.19 232856.46,2707218.38 232857.53,2707218.02 232858.56,2707217.10"/>
    </edge>
    <edge id=":1040661907_5" function="internal">
        <lane id=":1040661907_5_0" index="0" disallow="tram rail_urban rail rail_electric rail_fast ship container cable_car subway aircraft wheelchair scooter drone" speed="11.11" length="9.42" shape="232854.19,2707217.45 232861.38,2707223.55"/>
    </edge>
    <edge id=":1040661917_0" function="internal">
        <lane id=":1040661917_0_0" index="0" allow="pedestrian delivery bicycle" speed="5.00" length="5.05" shape="232931.11,2707140.75 232929.95,2707139.97 232928.84,2707139.77 232927.77,2707140.14 232926.74,2707141.07"/>
    </edge>
    <edge id=":1040661917_1" function="internal">
        <lane id=":1040661917_1_0" index="0" allow="pedestrian delivery bicycle" speed="5.56" length="10.18" shape="232931.11,2707140.75 232929.28,2707138.59 232928.53,2707136.37 232928.85,2707134.10 232930.25,2707131.78"/>
    </edge>
    <edge id=":1040661917_2" function="internal">
        <lane id=":1040661917_2_0" index="0" allow="pedestrian delivery bicycle" speed="5.18" length="5.17" shape="232932.72,2707133.81 232932.03,2707134.98 232931.89,2707136.12 232932.29,2707137.25 232933.25,2707138.37"/>
    </edge>
    <edge id=":1040661917_3" function="internal">
        <lane id=":1040661917_3_0" index="0" allow="pedestrian delivery bicycle" speed="5.56" length="9.41" shape="232932.72,2707133.81 232926.74,2707141.07"/>
    </edge>
    <edge id=":1040661917_4" function="internal">
        <lane id=":1040661917_4_0" index="0" allow="pedestrian delivery bicycle" speed="5.56" length="9.41" shape="232924.27,2707139.04 232930.25,2707131.78"/>
    </edge>
    <edge id=":1040661917_5" function="internal">
        <lane id=":1040661917_5_0" index="0" allow="pedestrian delivery bicycle" speed="5.56" length="10.38" shape="232924.27,2707139.04 232926.38,2707137.11 232928.58,2707136.36 232930.87,2707136.78 232933.25,2707138.37"/>
    </edge>
    <edge id=":1040661919_0" function="internal">
        <lane id=":1040661919_0_0" index="0" allow="pedestrian delivery bicycle" speed="5.56" length="9.46" shape="232946.32,2707145.59 232940.38,2707152.94"/>
    </edge>
    <edge id=":1040661919_1" function="internal">
        <lane id=":1040661919_1_0" index="0" allow="pedestrian delivery bicycle" speed="5.56" length="10.44" shape="232946.32,2707145.59 232944.22,2707147.56 232942.01,2707148.34 232939.71,2707147.93 232937.32,2707146.32"/>
    </edge>
    <edge id=":1040661919_2" function="internal">
        <lane id=":1040661919_2_0" index="0" allow="pedestrian delivery bicycle" speed="4.98" length="5.07" shape="232939.46,2707143.94 232940.62,2707144.72 232941.74,2707144.92 232942.80,2707144.54 232943.83,2707143.59"/>
    </edge>
    <edge id=":1040661919_3" function="internal">
        <lane id=":1040661919_3_0" index="0" allow="pedestrian delivery bicycle" speed="5.56" length="10.21" shape="232939.46,2707143.94 232941.30,2707146.11 232942.07,2707148.34 232941.76,2707150.61 232940.38,2707152.94"/>
    </edge>
    <edge id=":1040661919_4" function="internal">
        <lane id=":1040661919_4_0" index="0" allow="pedestrian delivery bicycle" speed="5.21" length="5.22" shape="232937.90,2707150.91 232938.58,2707149.75 232938.71,2707148.59 232938.29,2707147.45 232937.32,2707146.32"/>
    </edge>
    <edge id=":1040661919_5" function="internal">
        <lane id=":1040661919_5_0" index="0" allow="pedestrian delivery bicycle" speed="5.56" length="9.42" shape="232937.90,2707150.91 232943.83,2707143.59"/>
    </edge>
    <edge id=":1040661927_0" function="internal">
        <lane id=":1040661927_0_0" index="0" allow="pedestrian delivery bicycle" speed="5.56" length="10.65" shape="232935.90,2707158.41 232929.17,2707166.66"/>
    </edge>
    <edge id=":1040661927_1" function="internal">
        <lane id=":1040661927_1_0" index="0" allow="pedestrian delivery bicycle" speed="5.56" length="11.46" shape="232935.90,2707158.41 232934.25,2707159.75 232931.90,2707160.57 232928.84,2707160.90 232925.07,2707160.71"/>
    </edge>
    <edge id=":1040661927_2" function="internal">
        <lane id=":1040661927_2_0" index="0" allow="pedestrian delivery bicycle" speed="5.56" length="8.33" shape="232925.41,2707157.53 232928.35,2707157.72 232930.67,2707157.59 232932.36,2707157.15 232933.42,2707156.39"/>
    </edge>
    <edge id=":1040661927_3" function="internal">
        <lane id=":1040661927_3_0" index="0" allow="pedestrian delivery bicycle" speed="5.56" length="13.88" shape="232925.41,2707157.53 232929.51,2707158.51 232931.51,2707160.36 232931.39,2707163.07 232929.17,2707166.66"/>
    </edge>
    <edge id=":1040661927_4" function="internal">
        <lane id=":1040661927_4_0" index="0" allow="pedestrian delivery bicycle" speed="4.67" length="5.96" shape="232926.69,2707164.64 232927.64,2707163.10 232927.69,2707161.93 232926.84,2707161.13 232925.07,2707160.71"/>
    </edge>
    <edge id=":1040661927_5" function="internal">
        <lane id=":1040661927_5_0" index="0" allow="pedestrian delivery bicycle" speed="5.56" length="10.65" shape="232926.69,2707164.64 232933.42,2707156.39"/>
    </edge>
    <edge id=":1040661937_0" function="internal">
        <lane id=":1040661937_0_0" index="0" allow="pedestrian delivery bicycle" speed="5.30" length="5.33" shape="233063.79,2707235.45 233065.14,2707236.21 233066.38,2707236.42 233067.52,2707236.10 233068.54,2707235.23"/>
    </edge>
    <edge id=":1040661937_1" function="internal">
        <lane id=":1040661937_1_0" index="0" allow="pedestrian delivery bicycle" speed="4.16" length="3.27" shape="233064.69,2707239.74 233061.90,2707238.04"/>
    </edge>
    <edge id=":1040661937_2" function="internal">
        <lane id=":1040661937_2_0" index="0" disallow="tram rail_urban rail rail_electric rail_fast ship container cable_car subway aircraft wheelchair scooter drone" speed="22.22" length="5.96" shape="233064.69,2707239.74 233068.54,2707235.23"/>
        <lane id=":1040661937_2_1" index="1" disallow="tram rail_urban rail rail_electric rail_fast ship container cable_car subway aircraft wheelchair scooter drone" speed="22.22" length="5.96" shape="233067.11,2707241.83 233070.98,2707237.30"/>
        <lane id=":1040661937_2_2" index="2" disallow="tram rail_urban rail rail_electric rail_fast ship container cable_car subway aircraft wheelchair scooter drone" speed="22.22" length="5.96" shape="233069.54,2707243.92 233073.42,2707239.37"/>
    </edge>
    <edge id=":1040661947_0" function="internal">
        <lane id=":1040661947_0_0" index="0" disallow="tram rail_urban rail rail_electric rail_fast ship container cable_car subway aircraft wheelchair scooter drone" speed="16.66" length="3.25" shape="232968.56,2707347.07 232969.18,2707346.33 232969.58,2707345.81 232969.94,2707345.26 232970.44,2707344.43"/>
    </edge>
    <edge id=":1040661947_1" function="internal">
        <lane id=":1040661947_1_0" index="0" disallow="tram rail_urban rail rail_electric rail_fast ship container cable_car subway aircraft wheelchair scooter drone" speed="22.22" length="3.24" shape="232971.01,2707349.13 232973.10,2707346.64"/>
        <lane id=":1040661947_1_1" index="1" disallow="tram rail_urban rail rail_electric rail_fast ship container cable_car subway aircraft wheelchair scooter drone" speed="22.22" length="3.24" shape="232973.46,2707351.19 232975.55,2707348.71"/>
        <lane id=":1040661947_1_2" index="2" disallow="tram rail_urban rail rail_electric rail_fast ship container cable_car subway aircraft wheelchair scooter drone" speed="22.22" length="3.24" shape="232975.92,2707353.24 232978.00,2707350.77"/>
    </edge>
    <edge id=":1040661982_0" function="internal">
        <lane id=":1040661982_0_0" index="0" allow="pedestrian delivery bicycle" speed="5.03" length="5.02" shape="232925.54,2707282.40 232924.38,2707281.66 232923.26,2707281.48 232922.19,2707281.86 232921.17,2707282.78"/>
    </edge>
    <edge id=":1040661982_1" function="internal">
        <lane id=":1040661982_1_0" index="0" disallow="tram rail_urban rail rail_electric rail_fast ship container cable_car subway aircraft wheelchair scooter drone" speed="11.11" length="9.39" shape="232925.54,2707282.40 232918.40,2707276.30"/>
    </edge>
    <edge id=":1040661982_2" function="internal">
        <lane id=":1040661982_2_0" index="0" disallow="tram rail_urban rail rail_electric rail_fast ship container cable_car subway aircraft wheelchair scooter drone" speed="11.11" length="9.37" shape="232920.48,2707273.87 232927.61,2707279.96"/>
    </edge>
    <edge id=":1040661982_3" function="internal">
        <lane id=":1040661982_3_0" index="0" allow="pedestrian delivery bicycle" speed="6.90" length="3.21" shape="232920.48,2707273.87 232922.29,2707275.95 232922.44,2707276.39"/>
    </edge>
    <edge id=":1040661982_6" function="internal">
        <lane id=":1040661982_6_0" index="0" allow="pedestrian delivery bicycle" speed="6.90" length="6.94" shape="232922.44,2707276.39 232923.01,2707278.12 232922.64,2707280.40 232921.17,2707282.78"/>
    </edge>
    <edge id=":1040661982_4" function="internal">
        <lane id=":1040661982_4_0" index="0" allow="pedestrian delivery bicycle" speed="5.10" length="5.06" shape="232918.71,2707280.75 232919.44,2707279.55 232919.64,2707278.41 232919.29,2707277.33 232918.40,2707276.30"/>
    </edge>
    <edge id=":1040661982_5" function="internal">
        <lane id=":1040661982_5_0" index="0" allow="pedestrian delivery bicycle" speed="6.85" length="10.22" shape="232918.71,2707280.75 232920.78,2707278.86 232922.96,2707278.10 232925.24,2707278.46 232927.61,2707279.96"/>
    </edge>
    <edge id=":1040662003_0" function="internal">
        <lane id=":1040662003_0_0" index="0" disallow="tram rail_urban rail rail_electric rail_fast ship container cable_car subway aircraft wheelchair scooter drone" speed="11.11" length="3.65" shape="232972.91,2707323.53 232972.43,2707322.57 232972.04,2707321.94 232971.53,2707321.39 232970.71,2707320.68"/>
    </edge>
    <edge id=":1040662003_1" function="internal">
        <lane id=":1040662003_1_0" index="0" disallow="tram rail_urban rail rail_electric rail_fast ship container cable_car subway aircraft wheelchair scooter drone" speed="4.90" length="7.30" shape="232972.91,2707323.53 232972.17,2707321.37 232972.44,2707320.06 232973.71,2707319.60 232976.00,2707320.01"/>
    </edge>
    <edge id=":1040662003_2" function="internal">
        <lane id=":1040662003_2_0" index="0" disallow="tram rail_urban rail rail_electric rail_fast ship container cable_car subway aircraft wheelchair scooter drone" speed="11.11" length="3.72" shape="232972.78,2707318.24 232973.63,2707318.95 232974.26,2707319.37 232974.95,2707319.68 232976.00,2707320.01"/>
    </edge>
    <edge id=":1052165754_0" function="internal">
        <lane id=":1052165754_0_0" index="0" disallow="tram rail_urban rail rail_electric rail_fast ship container cable_car subway aircraft wheelchair scooter drone" speed="22.22" length="2.69" shape="232184.38,2707571.92 232186.34,2707573.76"/>
    </edge>
    <edge id=":1052165754_1" function="internal">
        <lane id=":1052165754_1_0" index="0" disallow="pedestrian tram rail_urban rail rail_electric rail_fast ship container cable_car subway aircraft wheelchair scooter drone" speed="22.22" length="3.01" shape="232182.13,2707574.19 232184.17,2707576.19"/>
        <lane id=":1052165754_1_1" index="1" disallow="pedestrian tram rail_urban rail rail_electric rail_fast ship container cable_car subway aircraft wheelchair scooter drone" speed="22.22" length="3.01" shape="232179.88,2707576.47 232182.03,2707578.58"/>