<?xml version="1.0" encoding="UTF-8"?>

<!-- generated on 2026-03-27 12:44:33.519329 by Eclipse SUMO randomTrips.py v0.0.0
<configuration>
    <net-file value="/Users/karimboubouh/Workspace/R/sumo/scenarios/abu_dhabi_corniche/network.net.xml"/>
    <output-trip-file value="/Users/karimboubouh/Workspace/R/sumo/scenarios/abu_dhabi_corniche/trips.xml"/>
    <route-file value="/Users/karimboubouh/Workspace/R/sumo/scenarios/abu_dhabi_corniche/routes.rou.xml"/>
    <period value="60.0"/>
</configuration>
-->

<!-- generated on 2026-03-27T12:44:33.510639+04:00 by Eclipse SUMO duarouter 1.26.0
<duarouterConfiguration xmlns:xsi="http://www.w3.org/2001/XMLSchema-instance" xsi:noNamespaceSchemaLocation="http://sumo.dlr.de/xsd/duarouterConfiguration.xsd">

    <input>
        <net-file value="/Users/karimboubouh/Workspace/R/sumo/scenarios/abu_dhabi_corniche/network.net.xml"/>
        <route-files value="/Users/karimboubouh/Workspace/R/sumo/scenarios/abu_dhabi_corniche/trips.xml"/>
    </input>

    <output>
        <output-file value="/Users/karimboubouh/Workspace/R/sumo/scenarios/abu_dhabi_corniche/routes.rou.xml"/>
        <alternatives-output value="NUL"/>
    </output>

    <time>
        <begin value="0"/>
        <end value="3600.0"/>
    </time>

    <report>
        <no-warnings value="true"/>
        <ignore-errors value="true"/>
        <no-step-log value="true"/>
    </report>

</duarouterConfiguration>
-->

<routes xmlns:xsi="http://www.w3.org/2001/XMLSchema-instance" xsi:noNamespaceSchemaLocation="http://sumo.dlr.de/xsd/routes_file.xsd">
    <vehicle id="0" depart="0.00">
        <route edges="297218053#0 297218053#2 297218053#2-AddedOffRampEdge 297218053#3 682777340 282224352 479537286 682777334 682785829#0 682785829#1 682785829#3 682785829#3-AddedOffRampEdge 682785828#0 682785828#2 682791231#0-AddedOnRampEdge 682791231#0 -480298462#7 -141196506#3 -141196509#1"/>
    </vehicle>
    <vehicle id="1" depart="60.00">
        <route edges="-480469176#11 -480469176#10 -480469176#9 -480297000 24156870#4 24156870#4-AddedOffRampEdge 682791225 682791229#2 682791228#0 682791228#1 682791228#2 682791228#3 682791228#4 682791228#4-AddedOffRampEdge 682785837#0 682785837#2 682785835#0-AddedOnRampEdge 682785835#0 -24161713#2 -24161713#1 -24161713#0 -479605010#6 -479605010#5"/>
    </vehicle>
    <vehicle id="2" depart="120.00">
        <route edges="682772432#0 682772435#1 682785831#0 682785831#1 682785831#2 682785831#3 682785831#4-AddedOnRampEdge 682785831#4 682785831#5 682785831#6 682785831#7 682785831#8 682785830#0 682785830#2 59988640#0 24167821 -1394145974#1 -1394145974#0 -89642596#8 282221665#0 852987834#0 852987834#1 -24167843"/>
    </vehicle>
    <vehicle id="3" depart="180.00">
        <route edges="-473415179#0 -24177230#0 682785833#6 682785833#7 682785833#8 682785832#0 682785832#2 482775625#0 482775625#1 482775625#2 482775625#3 482775625#4-AddedOnRampEdge 482775625#4 24177205 473171467#1 24177206#7 24177206#8 24177206#9 24177206#10 24177209#7"/>
    </vehicle>
    <vehicle id="4" depart="240.00">
        <route edges="-141196510 141196509#0 141196509#1 -141196506#2 -141196506#1 -141196506#0 141196508 682785833#8 682785832#0 682785837#2 682785835#0-AddedOnRampEdge 682785835#0 682785835#2 682785835#2-AddedOffRampEdge 682785835#3 89642591 1388184121#0-AddedOnRampEdge 1388184121#0 1388184121#0-AddedOffRampEdge 1388184121#1 1388184121#2-AddedOnRampEdge 1388184121#2 682784149#0 682784149#1 479605009 -473183163#5 -473183163#4 -473183163#3 -473183163#2 -473183163#1 -473183163#0"/>
    </vehicle>
    <vehicle id="5" depart="300.00">
        <route edges="434371440#2 434371440#3 434371440#4 434371440#6 682791229#0 682791226 59988636#0 59988636#1 59988636#2 59988636#3 59988636#4 59988636#5 59988636#6 89784032 -483122240#4 -483122240#3 -483122240#2 24177227#0 24177227#1 24177227#2 24177227#3 473167699 24177241#0"/>
    </vehicle>
    <vehicle id="6" depart="360.00">
        <route edges="-473415184#1 -473415185 -480469176#6 66018095 -24177934#4 -24177934#3 24177944#0 24177944#1 24177944#2 -24177946 24177945#1"/>
    </vehicle>
    <vehicle id="7" depart="420.00">
        <route edges="480737247#2 282224352 479537287#0 480737245#2 682777336 1388184121#0-AddedOnRampEdge 1388184121#0 1388184121#0-AddedOffRampEdge 1388184121#1 1388184121#2-AddedOnRampEdge 1388184121#2 24161715 479605006#1 479605006#2 -480863228#10 -480863228#9 -480863228#8 -480863228#6 -480863228#5 -480863228#4 -480863228#3 1149868215 -24161728 -1198278940"/>
    </vehicle>
    <vehicle id="8" depart="480.00">
        <route edges="480737245#0 479537287#2 682777337 282224355#0 282224355#2 473189251#0 473189251#1 473189251#2"/>
    </vehicle>
    <vehicle id="9" depart="540.00">
        <route edges="-24177206#2 -24177206#1 -24177206#0 483123828#1 483123828#2 483123828#3 682786732#2-AddedOnRampEdge 682786732#2 -24177215#2 -24177214#2 -24177213#1 -24177213#0"/>
    </vehicle>
    <vehicle id="10" depart="600.00">
        <route edges="483123826#4 483123826#5 483123826#6 682786732#6 682786732#8 682791227 682791226 59988636#0 59988636#1 59988636#2 473415183 -24177230#4 480298462#5 480298462#6 480298462#7 682791231#2 682791231#2-AddedOffRampEdge 682791230#0 682791224 682786735#0-AddedOnRampEdge 682786735#0 682786735#0-AddedOffRampEdge 24177964 -204765541#2 24177989"/>
    </vehicle>
    <vehicle id="11" depart="660.00">
        <route edges="480737245#2 682777336 1388184121#0-AddedOnRampEdge 1388184121#0 1388184121#0-AddedOffRampEdge 24161712 479605010#1"/>
    </vehicle>
    <vehicle id="12" depart="720.00">
        <route edges="24177218#3 24177218#4 24177218#5 682791228#2 682791228#3 682791228#4 682791228#4-AddedOffRampEdge 682785837#0 682785837#2 682785835#0-AddedOnRampEdge 682785835#0 682785835#2 682785835#2-AddedOffRampEdge 682785835#3 682777335 282224354 480737243#0 480737247#2 282224352 479537286 682777334 682785829#0 682785829#1 682785829#3 682785829#3-AddedOffRampEdge 682785828#0 682785828#2 682791231#0-AddedOnRampEdge"/>
    </vehicle>
    <vehicle id="13" depart="780.00">
        <route edges="141030514#0 141030514#1 24177241#1 24177241#2 24177241#3 -473167700 480298462#0 480298462#1 480298462#3 -24177242#3 24177243"/>
    </vehicle>
    <vehicle id="14" depart="840.00">
        <route edges="482775625#4 24177205 265402240"/>
    </vehicle>
    <vehicle id="15" depart="900.00">
        <route edges="59988636#6 59988636#7 59988636#8-AddedOnRampEdge 59988636#8 59988636#9 1282549346#2 1282658983 24157056#1 1282549347 1282549346#0 24156870#0 24156870#0-AddedOffRampEdge 66017943 66017685 -480469176#2 -480469176#1 -66019232#3 -66019232#2 24177938"/>
    </vehicle>
    <vehicle id="16" depart="960.00">
        <route edges="-479535697#2 -479535697#1 -852987834#2 -852987834#1 -852987834#0 282221665#1 282221665#2 282221665#3 282221665#4 473167679#3 682777333 282224350 480737248 682777336 1388184121#0-AddedOnRampEdge 1388184121#0 1388184121#0-AddedOffRampEdge 1388184121#1 1388184121#2-AddedOnRampEdge 1388184121#2 682784149#0 682784149#1 479605009 -473183163#5 -473183163#4 -473183163#3 -473183163#2 24161722 480883002 -480863230#1"/>
    </vehicle>
    <vehicle id="17" depart="1020.00">
        <route edges="-24177214#0 24177209#1 24177209#2 24177209#3 24177209#4 24177209#5 24177209#6 24177209#7 24177209#8 -480517463#10 -480517463#9 -480517463#8 -480517463#7"/>
    </vehicle>
    <vehicle id="18" depart="1080.00">
        <route edges="282224354 480737243#0 480737247#2 282224352 479537286 682777334 682785829#0 682785829#1 682785829#3 682785829#3-AddedOffRampEdge 682785828#0 682785828#2 682791231#0-AddedOnRampEdge 682791231#0 -480298462#7 -480298462#6 -480298462#5 -480298462#4 -480298462#3 -480298462#1 -480298462#0 -480426177 473167699 141030514#0 141030514#1"/>
    </vehicle>
    <vehicle id="19" depart="1140.00">
        <route edges="1394145974#0 24167826#0 24167826#1 89642596#6 89642596#7 89642596#8 89642596#9 89642596#10 682785829#3 682785829#3-AddedOffRampEdge 682785828#0 682785828#2 682791231#0-AddedOnRampEdge 682791231#0 682791231#2 682791231#2-AddedOffRampEdge 682791230#0 682791230#2 282224348#0 -480469176#13 -480469176#11 -480469176#10 -480469176#9 -480469176#8 -480469176#7 473415185 -473415184#0"/>
    </vehicle>
    <vehicle id="20" depart="1200.00">
        <route edges="-480453536#9 -480453536#8 -480453536#7 142100461 -24177944#3 -24177944#2 -24177944#1 -24177944#0 24177934#3 24177934#4 -66018095 480469176#6 480469176#7 480469176#8 -480297000 24156870#4 24156870#4-AddedOffRampEdge 682791225 682791229#2 682791228#0 24177219#0 24177219#1 24177219#2 24177219#3 483123826#5 483123826#6 682786732#6 682786732#8 682791227 682791226 59988636#0 59988636#1 59988636#2 473415183 -24177230#4 -480298462#4 -24177242#3 -24177242#2 -24177242#1 -24177242#0 682785833#4"/>
    </vehicle>
    <vehicle id="21" depart="1260.00">
        <route edges="416297653#4 682784155#1-AddedOnRampEdge 682784155#1 1388184120#0 1388184120#0-AddedOffRampEdge 479605014 480737243#0 480737247#2 282224352 479537286 682777334 682785829#0 682785829#1 682785829#3 682785829#3-AddedOffRampEdge 682785828#0 682785828#2 682791231#0-AddedOnRampEdge 682791231#0 682791231#2 682791231#2-AddedOffRampEdge 682791230#0 682791224 682786735#0-AddedOnRampEdge 682786735#0 682786735#0-AddedOffRampEdge 24177964 -204765541#2 -204765541#1 24177994#0 24177994#1 24177994#2 24177993#1"/>
    </vehicle>
    <vehicle id="22" depart="1320.00">
        <route edges="-24177970#4 -480475206#0 434371440#6 682791229#0 682791229#2 682791228#0 682791228#1 682791228#2 682791228#3 682791228#4 682791228#4-AddedOffRampEdge 682785837#0 682785837#2 682785835#0-AddedOnRampEdge 682785835#0 682785835#2 682785835#2-AddedOffRampEdge 682785835#3 89642591 1388184121#0-AddedOnRampEdge 1388184121#0 1388184121#0-AddedOffRampEdge 24161712 479605010#1"/>
    </vehicle>
    <vehicle id="23" depart="1380.00">
        <route edges="24177241#0 -141030514#1 -141030514#0 -473167699 -24177227#3 -24177227#2 -24177227#1 -24177227#0 483122240#2 483122240#3 483122240#4 89784018 59988636#8-AddedOnRampEdge 59988636#8 59988636#9 1282549346#2 1282658983 24157056#1 1282549347 1282549346#0 24156870#0 24156870#0-AddedOffRampEdge 66017943 66017685 -480469176#2 24177935#0 24177935#1 24177935#2 24177935#3 24177935#4 66019302#0 24177956 -480453536#13 24177958 66018251#1 24156849#8-AddedOnRampEdge 24156849#8 473176593#1 473176593#2"/>
    </vehicle>
    <vehicle id="24" depart="1440.00">
        <route edges="483122242 473415179#1 -141196506#0 141196508 682785833#8 90658080 682791231#0-AddedOnRampEdge 682791231#0 682791231#2 682791231#2-AddedOffRampEdge 682791230#0 682791230#2 282224348#0 282224348#2 282224348#4 480437382#0 24177947#2 24177947#3 480453536#3 480453536#4 -1451569159#2 -1451569159#1 -1451569159#0 24156849#2 480460955#0 480460955#1 480460955#2"/>
    </vehicle>
    <vehicle id="25" depart="1500.00">
        <route edges="-479535697#4 -479535697#3 -479535697#2 89642596#1 89642596#2 89642596#3 89642596#4 89642596#5 -24167826#1 -24167826#0 -1394145974#0 89642596#9 89642596#10 682785829#3 682785829#3-AddedOffRampEdge 682785828#0 682785828#2 682791231#0-AddedOnRampEdge 682791231#0 682791231#2 682791231#2-AddedOffRampEdge 682791230#0 682791230#2 282224348#0 -480469176#13 -480469176#11 -480469176#10 -480469176#9 -480469176#8 170066335 -170066333#0"/>
    </vehicle>
    <vehicle id="26" depart="1560.00">
        <route edges="-524461796#1 480863228#8 480863228#9 480863228#10 479605006#3 473172527 682785831#4-AddedOnRampEdge 682785831#4 682785831#5 682785831#6 682785831#7 682785831#8 682785830#0 682785828#2 682791231#0-AddedOnRampEdge 682791231#0 682791231#2 682791231#2-AddedOffRampEdge 682791230#0 682791230#2 282224348#0 -480469176#13 -480469176#11 -480469176#10 -480469176#9"/>
    </vehicle>
    <vehicle id="27" depart="1620.00">
        <route edges="-473183163#4 -473183163#3 -473183163#2 24161722 -24161721#0 682784162#1 682784162#1-AddedOffRampEdge 682784162#2 682784162#3 170334924 682785831#0 682785831#1 682785831#2 682785831#3 682785831#4-AddedOnRampEdge 682785831#4 682785831#5 682785831#6 682785831#7 682785831#8 90658034 682785835#0-AddedOnRampEdge"/>
    </vehicle>
    <vehicle id="28" depart="1680.00">
        <route edges="682784162#2 682784162#3 170334924 682785831#0 682785831#1 682785831#2 265402239 -479605006#3 -480863228#10 -480863228#9 -480863228#8 -480863228#6 -480863228#5 -480863228#4 -480863228#3 1149868215 1445975009 24161737#1"/>
    </vehicle>
    <vehicle id="29" depart="1740.00">
        <route edges="-480453536#5 -1451569159#2 -1451569159#1 -1451569159#0 24156849#2 24156849#4 24156849#5 24156849#6 24156849#7 24156849#8-AddedOnRampEdge 24156849#8 473176593#1 473176593#2 480469176#0 -66019232#3 -66019232#2 -66019232#1 -66019232#0 -480453536#15 -480453536#14"/>
    </vehicle>
    <vehicle id="30" depart="1800.00">
        <route edges="24177242#1 24177242#2 24177242#3 480298462#4 480298462#5 480298462#6 480298462#7 682791231#2 682791231#2-AddedOffRampEdge 682791230#0 682791230#2 282224348#0 -480469176#13 -480469176#11 -480469176#10 -480469176#9 -480469176#8 -480469176#7 -480469176#6 -480469176#5 -480469176#4 -480469176#3"/>
    </vehicle>
    <vehicle id="31" depart="1860.00">
        <route edges="24177935#3 24177935#4 66019302#0 66019302#1 -24177941#2 -24177941#1 -24177941#0 24177934#4 -66018095 480469176#6 480469176#7 480469176#8 -480297000 24156870#4 24156870#4-AddedOffRampEdge 682791225 682791229#2 682791228#0 682791228#1 682791228#2 682791228#3 682791228#4 682791228#4-AddedOffRampEdge 682785837#0 682785837#2 682785835#0-AddedOnRampEdge 682785835#0 682785835#2 682785835#2-AddedOffRampEdge 682785835#3 682777335 282224354 480737244 682777337"/>
    </vehicle>
    <vehicle id="32" depart="1920.00">
        <route edges="90658080 682791231#0-AddedOnRampEdge 682791231#0 -480298462#7 -141196506#3 -141196506#2 -141196506#1 -141196506#0 141196508 682785833#8 682785832#0 682785832#2 482775625#0 482775625#1 482775625#2 482775625#3 482775625#4-AddedOnRampEdge 482775625#4 24177205 -480517463#7 473175898 24177213#0"/>
    </vehicle>
    <vehicle id="33" depart="1980.00">
        <route edges="-24177227#1 -24177227#0 483122240#2 483122240#3 483122240#4 89784018 59988636#8-AddedOnRampEdge 59988636#8 59988636#9 1282549346#2 1282658983 24157056#1 1282549347 1282549346#0 24156870#0 24156870#0-AddedOffRampEdge 24156870#1 24156870#2-AddedOnRampEdge 24156870#2 24156870#4 24156870#4-AddedOffRampEdge 682791225 682791229#2 682791228#0 682791228#1 682791228#2 682791228#3 682791228#4 682791228#4-AddedOffRampEdge 682785837#0 682785837#2 682785835#0-AddedOnRampEdge 682785835#0 682785835#2 682785835#2-AddedOffRampEdge 682785835#3 682777335 282224354 480737243#0 480737243#2 282224350"/>
    </vehicle>
    <vehicle id="34" depart="2040.00">
        <route edges="-24161721#1 -24161721#0 682784162#1 682784162#1-AddedOffRampEdge 682784162#2 682784162#3 170334924 682785831#0 682785831#1 682785831#2 682785831#3 682785831#4-AddedOnRampEdge 682785831#4 682785831#5 682785831#6 682785831#7 682785831#8 682785830#0 682785828#2 682791231#0-AddedOnRampEdge 682791231#0 682791231#2 682791231#2-AddedOffRampEdge 682791230#0 682791230#2 282224348#0 -480469176#13 -480469176#11 -480469176#10 -480469176#9 -480469176#8 -480469176#7 -480469176#6 -480469176#5 170066336 170066334#1"/>
    </vehicle>
    <vehicle id="35" depart="2100.00">
        <route edges="682791230#2 282224348#0 -480469176#13 -480469176#11 -480469176#10 -480469176#9 -480297000 24156870#4 24156870#4-AddedOffRampEdge 682791225 682791229#2 682791228#0 24177219#0 24177219#1 24177219#2 24177219#3 483123826#5 483123826#6 682786732#6 682786732#8 682791227 682791226 59988636#0 59988636#1 59988636#2 59988636#3 59988636#4 59988636#5 59988636#6"/>
    </vehicle>
    <vehicle id="36" depart="2160.00">
        <route edges="-136962285 -480453536#11 -480453536#10 -24177941#3 -24177941#2 -24177941#1 -24177941#0 24177934#4 -66018095 480469176#6 480469176#7 480469176#8 -480297000 24156870#4 24156870#4-AddedOffRampEdge 682791225 682791229#2 682791228#0 682791228#1 682791228#2 682791228#3 682791228#4 682791228#4-AddedOffRampEdge 682785837#0 682785837#2 682785835#0-AddedOnRampEdge 682785835#0 682785835#2 682785835#2-AddedOffRampEdge 682785835#3 682777335 282224354 480737243#0 480737247#2 282224352 479537287#0"/>
    </vehicle>
    <vehicle id="37" depart="2220.00">
        <route edges="473174453#0 473174453#1 473174453#2 473174453#3 473174453#4 437422472#4 437422472#5 437422472#6 473174454#0 473174454#1 416297653#3 416297653#4 682784155#1-AddedOnRampEdge 682784155#1 1388184120#0 1388184120#0-AddedOffRampEdge 479605014 480737243#0 480737247#2 282224352 479537286 682777334 682785829#0 682785829#1 682785829#3 682785829#3-AddedOffRampEdge 682785828#0 682785828#2 682791231#0-AddedOnRampEdge 682791231#0 -480298462#7 -141196506#3 -141196506#2 -141196506#1 -473415179#1 -473415179#0 24177230#2 24177230#3"/>
    </vehicle>
    <vehicle id="38" depart="2280.00">
        <route edges="-24177227#3 -24177227#2 -24177227#1 -24177227#0 483122240#2 483122240#3 483122240#4 89784018 59988636#8-AddedOnRampEdge 59988636#8 59988636#9 1282549346#2 1282658983 24157056#1 1282549347 1282549346#0 24156870#0 24156870#0-AddedOffRampEdge 24156870#1 24156870#2-AddedOnRampEdge 24156870#2 24156870#4 24156870#4-AddedOffRampEdge 682791225 682791229#2 682791228#0 682791228#1 682791228#2 682791228#3 682791228#4 682791228#4-AddedOffRampEdge 682785837#0 682785837#2 682785835#0-AddedOnRampEdge 682785835#0 682785835#2 682785835#2-AddedOffRampEdge 682785835#3 89642591 1388184121#0-AddedOnRampEdge 1388184121#0 1388184121#0-AddedOffRampEdge 24161712 479605010#1 479605010#2 24161714"/>
    </vehicle>
    <vehicle id="39" depart="2340.00">
        <route edges="24161718#0 -24161714 479605010#3 479605010#4 479605010#5 479605010#6 24161713#0 24161713#1 24161713#2 682785835#2 682785835#2-AddedOffRampEdge 682785835#3 682777335 282224354 480737243#0 480737247#2 282224352 479537286 682777334 682785829#0 682785829#1 682785829#3 682785829#3-AddedOffRampEdge 682785828#0 682785832#2 482775625#0 482775625#1 482775625#2 24177210 483123826#0 483123826#1 483123826#2 483123826#3 483123826#4 483123826#5 483123826#6 682786732#6 682786732#8"/>
    </vehicle>
    <vehicle id="40" depart="2400.00">
        <route edges="24177198#0 -24177214#3 24177215#2 682786732#4 682786732#4-AddedOffRampEdge 682786732#5 682786732#6 682786732#8 90658090 682791228#0 682791228#1 682791228#2 682791228#3 682791228#4 682791228#4-AddedOffRampEdge 682785837#0 682785830#2 59988640#0 24167821 -1394145974#1 -1394145974#0 -89642596#8 282221665#0 852987834#0 -24167842 24167828#2 24167828#3 473167679#0 473167679#1 -282221665#4 -282221665#3"/>
    </vehicle>
    <vehicle id="41" depart="2460.00">
        <route edges="682784162#1 682784162#1-AddedOffRampEdge 682784162#2 682784162#3 170334924 682785831#0 682785831#1 682785831#2 682785831#3 682785831#4-AddedOnRampEdge 682785831#4 682785831#5 682785831#6 682785831#7 682785831#8 682785830#0 682785830#2 59988640#0 59988640#1 59988640#2 59988640#3 59988640#4 59988640#5"/>
    </vehicle>
    <vehicle id="42" depart="2520.00">
        <route edges="24177970#3 -480475206#0 434371440#6 682791229#0 682791229#2 682791228#0 24177219#0 24177219#1 24177219#2 24177219#3 483123826#5 483123826#6 682786732#6 682786732#8 682791227 682791230#2 282224348#0 -480469176#13 24177947#0 24177934#0 24177934#1 24177934#2 24177944#0 24177944#1 24177944#2 -24177946"/>
    </vehicle>
    <vehicle id="43" depart="2580.00">
        <route edges="480453536#11 480453536#12 480453536#13 -24177956 -66019302#0 -24177935#4 -24177935#3 -24177935#2 -24177934#6 -1128456075#3 -1128456075#2 -1128456075#1 -1128456075#0 -66017685 66018006 24156870#2-AddedOnRampEdge 24156870#2 24156870#4 24156870#4-AddedOffRampEdge 682791225 682791229#2 682791228#0 24177219#0 24177219#1 24177219#2 24177219#3 483123826#5 483123826#6 682786732#6 682786732#8 682791227 682791226 59988636#0 24177229#0 24177229#1 24177229#2 24177232"/>
    </vehicle>
    <vehicle id="44" depart="2640.00">
        <route edges="480460955#2 480453536#7 480453536#8 480453536#9 -24177941#3 -24177941#2 -24177941#1 -24177941#0 24177934#4 -66018095 480469176#6 480469176#7 480469176#8 -480297000 24156870#4 24156870#4-AddedOffRampEdge 682791225 682791229#2 682791228#0 24177219#0 24177219#1 24177219#2 24177219#3 483123826#5 483123826#6 682786732#6 682786732#8 682791227 682791226 59988636#0 59988636#1 59988636#2 59988636#3 59988636#4 59988636#5 59988636#6 89784032 -483122240#4 -483122240#3 -483122240#2 24177227#0 24177227#1 24177227#2"/>
    </vehicle>
    <vehicle id="45" depart="2700.00">
        <route edges="-1038979907 24177994#1 -480475206#1 -480475206#0 434371440#6 682791229#0 682791229#2 682791228#0 682791228#1 682791228#2 682791228#3 682791228#4 682791228#4-AddedOffRampEdge 682785837#0 682785830#2 59988640#0 24167821 -1394145974#1 -1394145974#0 -89642596#8"/>
    </vehicle>
    <vehicle id="46" depart="2760.00">
        <route edges="-141176773#1 24167830 -479535697#3 -479535697#2 -479535697#1 -852987834#2 -852987834#1 -852987834#0 282221665#1 282221665#2 282221665#3 282221665#4 473167679#3 682777333 282224350 480737248 682777336 1388184121#0-AddedOnRampEdge 1388184121#0 1388184121#0-AddedOffRampEdge 1388184121#1 1388184121#2-AddedOnRampEdge 1388184121#2 24161715 479605006#1 479605006#2 479605006#3 473172527 682785831#4-AddedOnRampEdge 682785831#4 682785831#5"/>
    </vehicle>
    <vehicle id="47" depart="2820.00">
        <route edges="636064654#1 480903233#0 480903233#1 480903233#2 524461796#0 480863228#8 480863228#9 480863228#10 479605006#3 473172527 682785831#4-AddedOnRampEdge 682785831#4 682785831#5 682785831#6 682785831#7 682785831#8 90658034 682785835#0-AddedOnRampEdge 682785835#0 682785835#2 682785835#2-AddedOffRampEdge 682785835#3 682777335 282224354 480737243#0 480737247#2 282224352 479537286 682777334 682785829#0 682785829#1 682785829#3 682785829#3-AddedOffRampEdge 682785828#0 682785832#2 482775625#0 482775625#1 482775625#2 482775625#3 482775625#4-AddedOnRampEdge 482775625#4 482775625#5 482775625#6-AddedOnRampEdge 482775625#6"/>
    </vehicle>
    <vehicle id="48" depart="2880.00">
        <route edges="-480903233#0 -636064654#1 480863228#5 480863228#6 480863228#8 480863228#9 480863228#10 479605006#3 24161716#0 -24161718#3"/>
    </vehicle>
    <vehicle id="49" depart="2940.00">
        <route edges="636064654#0 480863228#5 480863228#6 480863228#8 480863228#9 480863228#10 479605006#3 473172527 682785831#4-AddedOnRampEdge 682785831#4 682785831#5 682785831#6 682785831#7 682785831#8 682785830#0 682785837#2"/>
    </vehicle>
    <vehicle id="50" depart="3000.00">
        <route edges="-24161730#1 -1445975008 480903233#0 480903233#1 480903233#2 524461796#0 480863228#8 480863228#9 480863228#10 479605006#3 473172527 682785831#4-AddedOnRampEdge 682785831#4 682785831#5 682785831#6 682785831#7 682785831#8 682785830#0 682785828#2 682791231#0-AddedOnRampEdge 682791231#0 682791231#2 682791231#2-AddedOffRampEdge 682791230#0 682791230#2 282224348#0 282224348#2 282224348#4 480437382#0 24177947#2 24177947#3 480453536#3 480453536#4 480453536#5 480453536#7 480453536#8 480453536#9 480453536#10 480453536#11 480453536#12"/>
    </vehicle>
    <vehicle id="51" depart="3060.00">
        <route edges="480453536#14 480453536#15 480453536#16 66019232#1 66019232#2 66019232#3 480469176#1 480469176#2 480469176#3 480469176#4 480469176#5 480469176#6 480469176#7 480469176#8 480469176#9 -24177931 -24177930#0"/>
    </vehicle>
    <vehicle id="52" depart="3120.00">
        <route edges="-480453536#5 -480453536#4 -480453536#3 -24177947#3 -24177947#2 -24177947#1 -24177947#0 -480469176#11 -480469176#10 -480469176#9 -480297000 24156870#4 24156870#4-AddedOffRampEdge 682791225 682791229#2 682791228#0 682791228#1 682791228#2 682791228#3 682791228#4 682791228#4-AddedOffRampEdge 682785837#0 682785830#2 59988640#0 59988640#1 59988640#2 59988640#3 59988640#4 59988640#5 59988640#6 59988640#7 59988640#8"/>
    </vehicle>
    <vehicle id="53" depart="3180.00">
        <route edges="24177219#0 24177219#1 24177219#2 24177219#3 483123826#5 483123826#6 682786732#6 682786732#8 90658090 682791228#0 682791228#1 682791228#2 682791228#3 682791228#4 682791228#4-AddedOffRampEdge 682785837#0 682785837#2 682785835#0-AddedOnRampEdge 682785835#0 682785835#2 682785835#2-AddedOffRampEdge 682785835#3 89642591 1388184121#0-AddedOnRampEdge 1388184121#0 1388184121#0-AddedOffRampEdge 24161712 479605010#1"/>
    </vehicle>
    <vehicle id="54" depart="3240.00">
        <route edges="-473173102#1 -24161414 -24161413#1 -24161413#0 1388184122#2 682784155#0 682784155#1-AddedOnRampEdge 682784155#1 1388184120#0 1388184120#0-AddedOffRampEdge 479605014 480737243#0 480737247#2 282224352 479537286 682777334 682785829#0 682785829#1 682785829#3 682785829#3-AddedOffRampEdge 682785828#0 682785828#2 682791231#0-AddedOnRampEdge 682791231#0 682791231#2 682791231#2-AddedOffRampEdge 682791230#0 682791230#2 282224348#0 -480469176#13 24177947#0 24177934#0 24177934#1 24177934#2 24177944#0 24177944#1 24177944#2 24177944#3 -66019302#5 -66019302#4"/>
    </vehicle>
    <vehicle id="55" depart="3300.00">
        <route edges="90658034 682785835#0-AddedOnRampEdge 682785835#0 682785835#2 682785835#2-AddedOffRampEdge 682785835#3 682777335 282224354 480737244 682777337 282224355#0 282224355#2 473189251#0 473189251#1 473189251#2 437419405 437419407#0 437419407#2"/>
    </vehicle>
    <vehicle id="56" depart="3360.00">
        <route edges="24161402#1 -24161413#2 -24161413#1 -24161413#0 1388184122#2 682784155#0 682784155#1-AddedOnRampEdge 682784155#1 1388184120#0 1388184120#0-AddedOffRampEdge 479605014 480737243#0 480737247#2 282224352 479537286 682777334 682785829#0 682785829#1 682785829#3 682785829#3-AddedOffRampEdge 682785828#0 682785832#2 482775625#0 482775625#1 482775625#2 482775625#3 482775625#4-AddedOnRampEdge 482775625#4 24177205 -480517463#7 -480517463#6 473175899 24177215#0 24177216#0"/>
    </vehicle>
    <vehicle id="57" depart="3420.00">
        <route edges="-24177241#0 -473167699 480426177 480298462#0 480298462#1 480298462#3 -24177242#3 -24177242#2 -24177242#1 -24177242#0 682785833#4 682785833#4-AddedOffRampEdge 682785833#5 682785833#6 682785833#7 682785833#8 682785832#0 682785837#2 682785835#0-AddedOnRampEdge 682785835#0 -24161713#2 -24161713#1 -24161713#0 479605010#7 -24161719#1 -24161719#0 24161718#3 24161716#1 -479605010#8 -479605010#7"/>
    </vehicle>
    <vehicle id="58" depart="3480.00">
        <route edges="-89642596#7 -89642596#6 -24167826#1 -24167826#0 -1394145974#0 89642596#9 89642596#10 682785829#3 682785829#3-AddedOffRampEdge 682785828#0 682785828#2 682791231#0-AddedOnRampEdge 682791231#0 682791231#2 682791231#2-AddedOffRampEdge 682791230#0 682791230#2 282224348#0 -480469176#13 24177947#0 24177934#0 24177934#1 24177945#0"/>
    </vehicle>
    <vehicle id="59" depart="3540.00">
        <route edges="-479535697#5 -479535697#4 -479535697#3 -479535697#2 -479535697#1 -852987834#2 -852987834#1 -852987834#0 282221665#1 282221665#2 282221665#3 282221665#4 473167679#3 682777333 282224350 480737248 682777336 1388184121#0-AddedOnRampEdge 1388184121#0 1388184121#0-AddedOffRampEdge 24161712 24161717#0 24161718#0 -24161714 -479605010#2"/>
    </vehicle>
</routes>
