<?xml version="1.0" encoding="UTF-8"?>

<!-- generated on 2026-03-27T12:44:34.752568+04:00 by Eclipse SUMO netconvert 1.26.0
<netconvertConfiguration xmlns:xsi="http://www.w3.org/2001/XMLSchema-instance" xsi:noNamespaceSchemaLocation="http://sumo.dlr.de/xsd/netconvertConfiguration.xsd">

    <input>
        <osm-files value="/Users/karimboubouh/Workspace/R/sumo/scenarios/yas_island/map.osm"/>
    </input>

    <output>
        <output-file value="/Users/karimboubouh/Workspace/R/sumo/scenarios/yas_island/network.net.xml"/>
    </output>

    <projection>
        <proj.utm value="true"/>
    </projection>

    <processing>
        <geometry.remove value="true"/>
        <offset.disable-normalization value="true"/>
    </processing>

    <tls_building>
        <tls.discard-simple value="true"/>
        <tls.join value="true"/>
        <tls.guess-signals value="true"/>
    </tls_building>

    <ramp_guessing>
        <ramps.guess value="true"/>
    </ramp_guessing>

    <junctions>
        <no-turnarounds value="true"/>
        <junctions.join value="true"/>
    </junctions>

</netconvertConfiguration>
-->

<net version="1.20" junctionCornerDetail="5" limitTurnSpeed="5.50" xmlns:xsi="http://www.w3.org/2001/XMLSchema-instance" xsi:noNamespaceSchemaLocation="http://sumo.dlr.de/xsd/net_file.xsd">

    <location netOffset="0.00,0.00" convBoundary="255036.93,2708802.42,259813.13,2711957.52" origBoundary="54.582580,24.473993,54.629957,24.502061" projParameter="+proj=utm +zone=40 +ellps=WGS84 +datum=WGS84 +units=m +no_defs"/>

    <type id="highway.motorway" priority="14" numLanes="2" speed="39.44" allow="private emergency authority army vip passenger hov taxi bus coach delivery truck trailer motorcycle evehicle custom1 custom2" oneway="1"/>
    <type id="highway.motorway_link" priority="9" numLanes="1" speed="22.22" allow="private emergency authority army vip passenger hov taxi bus coach delivery truck trailer motorcycle evehicle custom1 custom2" oneway="1"/>
    <type id="highway.residential" priority="3" numLanes="1" speed="13.89" disallow="tram rail_urban rail rail_electric rail_fast ship container cable_car subway aircraft wheelchair scooter drone" oneway="0"/>
    <type id="highway.secondary" priority="11" numLanes="1" speed="27.78" disallow="tram rail_urban rail rail_electric rail_fast ship container cable_car subway aircraft wheelchair scooter drone" oneway="0"/>
    <type id="highway.secondary_link" priority="6" numLanes="1" speed="22.22" disallow="tram rail_urban rail rail_electric rail_fast ship container cable_car subway aircraft wheelchair scooter drone" oneway="0"/>
    <type id="highway.service" priority="1" numLanes="1" speed="5.56" allow="pedestrian delivery bicycle" oneway="0"/>
    <type id="highway.tertiary" priority="10" numLanes="1" speed="22.22" disallow="tram rail_urban rail rail_electric rail_fast ship container cable_car subway aircraft wheelchair scooter drone" oneway="0"/>
    <type id="highway.unclassified" priority="4" numLanes="1" speed="13.89" disallow="tram rail_urban rail rail_electric rail_fast ship container cable_car subway aircraft wheelchair scooter drone" oneway="0"/>

    <edge id=":10242468928_0" function="internal">
        <lane id=":10242468928_0_0" index="0" allow="delivery bicycle" speed="5.56" length="0.30" shape="256484.24,2710337.33 256484.44,2710337.55"/>
    </edge>
    <edge id=":10242468949_0" function="internal">
        <lane id=":10242468949_0_0" index="0" allow="pedestrian delivery bicycle" speed="5.56" length="6.24" shape="256502.01,2710392.77 256505.09,2710398.20"/>
    </edge>
    <edge id=":10242468949_1" function="internal">
        <lane id=":10242468949_1_0" index="0" allow="pedestrian delivery bicycle" speed="5.41" length="5.24" shape="256502.01,2710392.77 256502.47,2710393.99 256502.42,2710395.17 256501.86,2710396.29 256500.79,2710397.35"/>
    </edge>
    <edge id=":10242468967_0" function="internal">
        <lane id=":10242468967_0_0" index="0" allow="pedestrian delivery bicycle" speed="5.56" length="7.69" shape="256449.52,2710421.63 256449.18,2710420.55 256449.56,2710419.08 256450.65,2710417.22 256452.47,2710414.98"/>
    </edge>
    <edge id=":10242468967_1" function="internal">
        <lane id=":10242468967_1_0" index="0" allow="pedestrian delivery bicycle" speed="5.56" length="9.15" shape="256444.50,2710418.98 256446.72,2710418.65 256448.79,2710417.87 256450.70,2710416.65 256452.47,2710414.98"/>
    </edge>
    <edge id=":10242468967_2" function="internal">
        <lane id=":10242468967_2_0" index="0" allow="pedestrian delivery bicycle" speed="5.56" length="7.66" shape="256444.50,2710418.98 256447.51,2710418.90 256449.77,2710418.99 256451.28,2710419.24 256452.04,2710419.66"/>
    </edge>
    <edge id=":10242468968_0" function="internal">
        <lane id=":10242468968_0_0" index="0" allow="pedestrian delivery bicycle" speed="5.56" length="6.20" shape="256424.40,2710460.58 256420.38,2710455.85"/>
    </edge>
    <edge id=":10242468968_1" function="internal">
        <lane id=":10242468968_1_0" index="0" allow="pedestrian delivery bicycle" speed="5.06" length="5.01" shape="256424.77,2710456.21 256423.60,2710456.94 256422.48,2710457.12 256421.41,2710456.76 256420.38,2710455.85"/>
    </edge>
    <edge id=":10242468970_0" function="internal">
        <lane id=":10242468970_0_0" index="0" allow="pedestrian delivery bicycle" speed="5.56" length="6.28" shape="256470.27,2710447.71 256466.32,2710442.83"/>
    </edge>
    <edge id=":10242468970_1" function="internal">
        <lane id=":10242468970_1_0" index="0" allow="pedestrian delivery bicycle" speed="5.04" length="5.03" shape="256473.18,2710441.31 256472.25,2710442.31 256471.86,2710443.38 256472.03,2710444.50 256472.74,2710445.69"/>
    </edge>
    <edge id=":10242468970_2" function="internal">
        <lane id=":10242468970_2_0" index="0" allow="pedestrian delivery bicycle" speed="5.56" length="7.77" shape="256473.18,2710441.31 256470.91,2710442.89 256469.01,2710443.67 256467.48,2710443.65 256466.32,2710442.83"/>
    </edge>
    <edge id=":10242468970_3" function="internal">
        <lane id=":10242468970_3_0" index="0" allow="pedestrian delivery bicycle" speed="5.56" length="6.24" shape="256468.82,2710440.83 256472.74,2710445.69"/>
    </edge>
    <edge id=":10242468970_4" function="internal">
        <lane id=":10242468970_4_0" index="0" allow="pedestrian delivery bicycle" speed="5.13" length="5.10" shape="256465.90,2710447.31 256466.82,2710446.28 256467.20,2710445.18 256467.03,2710444.03 256466.32,2710442.83"/>
    </edge>
    <edge id=":10242468970_5" function="internal">
        <lane id=":10242468970_5_0" index="0" allow="pedestrian delivery bicycle" speed="5.56" length="7.80" shape="256465.90,2710447.31 256468.14,2710445.68 256470.03,2710444.86 256471.56,2710444.87 256472.74,2710445.69"/>
    </edge>
    <edge id=":10242468971_0" function="internal">
        <lane id=":10242468971_0_0" index="0" allow="pedestrian delivery bicycle" speed="5.56" length="6.20" shape="256437.21,2710475.64 256433.19,2710470.92"/>
    </edge>
    <edge id=":10242468971_1" function="internal">
        <lane id=":10242468971_1_0" index="0" allow="pedestrian delivery bicycle" speed="5.04" length="5.00" shape="256437.21,2710475.64 256436.48,2710474.48 256436.30,2710473.37 256436.66,2710472.30 256437.57,2710471.28"/>
    </edge>
    <edge id=":10242468972_0" function="internal">
        <lane id=":10242468972_0_0" index="0" allow="pedestrian delivery bicycle" speed="5.56" length="5.27" shape="256483.18,2710461.99 256482.06,2710461.38 256480.88,2710461.24 256479.65,2710461.57 256478.36,2710462.39"/>
    </edge>
    <edge id=":10242468972_1" function="internal">
        <lane id=":10242468972_1_0" index="0" allow="pedestrian delivery bicycle" speed="5.56" length="3.94" shape="256483.18,2710461.99 256482.22,2710461.31 256481.53,2710460.89 256480.88,2710460.42 256480.06,2710459.61"/>
    </edge>
    <edge id=":10242468972_2" function="internal">
        <lane id=":10242468972_2_0" index="0" allow="pedestrian delivery bicycle" speed="5.56" length="1.69" shape="256483.80,2710458.46 256485.15,2710459.47"/>
    </edge>
    <edge id=":10242468972_3" function="internal">
        <lane id=":10242468972_3_0" index="0" allow="pedestrian delivery bicycle" speed="5.42" length="6.71" shape="256483.80,2710458.46 256478.36,2710462.39"/>
    </edge>
    <edge id=":10242469001_0" function="internal">
        <lane id=":10242469001_0_0" index="0" allow="pedestrian delivery bicycle" speed="5.56" length="6.50" shape="256494.93,2710466.08 256493.02,2710465.83 256491.66,2710465.83 256490.35,2710465.68 256488.59,2710464.99"/>
    </edge>
    <edge id=":10242469001_1" function="internal">
        <lane id=":10242469001_1_0" index="0" allow="pedestrian delivery bicycle" speed="5.13" length="9.86" shape="256494.93,2710466.08 256491.72,2710465.17 256490.75,2710464.26 256492.01,2710463.34 256495.52,2710462.41"/>
    </edge>
    <edge id=":10242469001_2" function="internal">
        <lane id=":10242469001_2_0" index="0" allow="pedestrian delivery bicycle" speed="5.56" length="5.68" shape="256490.02,2710462.13 256491.54,2710462.77 256492.68,2710462.94 256493.87,2710462.77 256495.52,2710462.41"/>
    </edge>
    <edge id=":10242489029_0" function="internal">
        <lane id=":10242489029_0_0" index="0" allow="pedestrian delivery bicycle" speed="5.56" length="5.50" shape="256519.28,2710448.59 256518.36,2710447.24 256517.78,2710446.28 256517.31,2710445.26 256516.73,2710443.74"/>
    </edge>
    <edge id=":10242489029_1" function="internal">
        <lane id=":10242489029_1_0" index="0" allow="pedestrian delivery bicycle" speed="5.56" length="5.20" shape="256515.14,2710448.34 256516.18,2710447.24 256516.78,2710446.11 256516.97,2710444.94 256516.73,2710443.74"/>
    </edge>
    <edge id=":10242489030_0" function="internal">
        <lane id=":10242489030_0_0" index="0" allow="pedestrian delivery bicycle" speed="5.56" length="5.31" shape="256524.00,2710452.12 256522.85,2710451.72 256521.65,2710451.73 256520.39,2710452.16 256519.07,2710453.00"/>
    </edge>
    <edge id=":10242489030_1" function="internal">
        <lane id=":10242489030_1_0" index="0" allow="pedestrian delivery bicycle" speed="5.56" length="5.65" shape="256524.00,2710452.12 256522.49,2710451.38 256521.42,2710450.87 256520.51,2710450.18 256519.49,2710448.89"/>
    </edge>
    <edge id=":10242489032_0" function="internal">
        <lane id=":10242489032_0_0" index="0" allow="pedestrian delivery bicycle" speed="5.56" length="8.46" shape="256534.33,2710456.89 256532.42,2710455.28 256530.98,2710454.32 256529.36,2710453.70 256526.94,2710453.10"/>
    </edge>
    <edge id=":10242489032_1" function="internal">
        <lane id=":10242489032_1_0" index="0" allow="pedestrian delivery bicycle" speed="5.56" length="8.46" shape="256535.19,2710452.40 256532.81,2710453.18 256531.10,2710453.57 256529.38,2710453.56 256526.94,2710453.10"/>
    </edge>
    <edge id=":10242489037_0" function="internal">
        <lane id=":10242489037_0_0" index="0" allow="pedestrian delivery bicycle" speed="5.56" length="7.71" shape="256543.34,2710442.38 256543.00,2710444.62 256543.06,2710446.21 256543.61,2710447.71 256544.73,2710449.67"/>
    </edge>
    <edge id=":10242489037_1" function="internal">
        <lane id=":10242489037_1_0" index="0" allow="pedestrian delivery bicycle" speed="5.56" length="7.56" shape="256543.34,2710442.38 256542.88,2710444.56 256542.34,2710446.01 256541.47,2710447.30 256540.01,2710448.99"/>
    </edge>
    <edge id=":10242489047_0" function="internal">
        <lane id=":10242489047_0_0" index="0" allow="pedestrian delivery bicycle" speed="5.56" length="11.08" shape="256521.26,2710383.28 256523.05,2710385.84 256524.70,2710387.56 256526.54,2710389.15 256528.87,2710391.26"/>
    </edge>
    <edge id=":10242489047_1" function="internal">
        <lane id=":10242489047_1_0" index="0" allow="pedestrian delivery bicycle" speed="5.56" length="11.09" shape="256521.26,2710383.28 256522.83,2710386.00 256523.85,2710388.17 256524.68,2710390.44 256525.69,2710393.41"/>
    </edge>
    <edge id=":10242489051_0" function="internal">
        <lane id=":10242489051_0_0" index="0" allow="delivery bicycle" speed="5.56" length="0.30" shape="256477.33,2710344.01 256477.15,2710343.77"/>
    </edge>
    <edge id=":10242489061_0" function="internal">
        <lane id=":10242489061_0_0" index="0" allow="pedestrian delivery bicycle" speed="5.56" length="9.51" shape="256424.93,2710487.52 256430.78,2710495.01"/>
    </edge>
    <edge id=":10242489061_1" function="internal">
        <lane id=":10242489061_1_0" index="0" allow="pedestrian delivery bicycle" speed="5.56" length="7.98" shape="256424.93,2710487.52 256426.51,2710489.76 256427.28,2710491.69 256427.25,2710493.30 256426.42,2710494.60"/>
    </edge>
    <edge id=":10242489061_2" function="internal">
        <lane id=":10242489061_2_0" index="0" allow="pedestrian delivery bicycle" speed="5.56" length="8.07" shape="256424.24,2710492.26 256425.65,2710491.50 256427.21,2710491.71 256428.92,2710492.88 256430.78,2710495.01"/>
    </edge>
    <edge id=":10242489068_0" function="internal">
        <lane id=":10242489068_0_0" index="0" allow="pedestrian delivery bicycle" speed="11.12" length="10.64" shape="256363.62,2710433.91 256360.54,2710434.00 256358.33,2710434.32 256356.33,2710435.24 256353.85,2710437.12"/>
        <lane id=":10242489068_0_1" index="1" allow="pedestrian delivery bicycle" speed="11.12" length="12.39" shape="256363.62,2710433.91 256360.30,2710433.55 256357.52,2710432.91 256354.83,2710432.96 256351.78,2710434.69"/>
    </edge>
    <edge id=":10242489068_2" function="internal">
        <lane id=":10242489068_2_0" index="0" disallow="tram rail_urban rail rail_electric rail_fast ship container cable_car subway aircraft wheelchair scooter drone" speed="16.67" length="11.07" shape="256362.37,2710430.16 256353.85,2710437.12"/>
        <lane id=":10242489068_2_1" index="1" disallow="tram rail_urban rail rail_electric rail_fast ship container cable_car subway aircraft wheelchair scooter drone" speed="16.67" length="11.07" shape="256360.33,2710427.69 256351.78,2710434.69"/>
        <lane id=":10242489068_2_2" index="2" disallow="tram rail_urban rail rail_electric rail_fast ship container cable_car subway aircraft wheelchair scooter drone" speed="16.67" length="11.07" shape="256358.29,2710425.23 256349.70,2710432.25"/>
        <lane id=":10242489068_2_3" index="3" disallow="tram rail_urban rail rail_electric rail_fast ship container cable_car subway aircraft wheelchair scooter drone" speed="16.67" length="11.07" shape="256356.25,2710422.76 256347.63,2710429.81"/>
    </edge>
    <edge id=":10242489069_0" function="internal">
        <lane id=":10242489069_0_0" index="0" allow="pedestrian delivery bicycle" speed="11.12" length="25.43" shape="256401.53,2710401.91 256394.83,2710407.38 256389.32,2710411.73 256385.16,2710415.36 256382.48,2710418.64"/>
    </edge>
    <edge id=":10242489069_1" function="internal">
        <lane id=":10242489069_1_0" index="0" disallow="tram rail_urban rail rail_electric rail_fast ship container cable_car subway aircraft wheelchair scooter drone" speed="16.67" length="22.96" shape="256399.46,2710399.47 256381.72,2710414.15"/>
        <lane id=":10242489069_1_1" index="1" disallow="tram rail_urban rail rail_electric rail_fast ship container cable_car subway aircraft wheelchair scooter drone" speed="16.67" length="22.96" shape="256397.39,2710397.03 256379.68,2710411.68"/>
        <lane id=":10242489069_1_2" index="2" disallow="tram rail_urban rail rail_electric rail_fast ship container cable_car subway aircraft wheelchair scooter drone" speed="16.67" length="22.96" shape="256395.31,2710394.59 256377.64,2710409.22"/>
        <lane id=":10242489069_1_3" index="3" disallow="tram rail_urban rail rail_electric rail_fast ship container cable_car subway aircraft wheelchair scooter drone" speed="16.67" length="22.96" shape="256393.24,2710392.15 256375.60,2710406.75"/>
    </edge>
    <edge id=":10242489096_0" function="internal">
        <lane id=":10242489096_0_0" index="0" allow="pedestrian delivery bicycle" speed="5.56" length="7.31" shape="256248.26,2710766.55 256246.55,2710765.60 256244.86,2710765.30 256243.20,2710765.67 256241.56,2710766.69"/>
    </edge>
    <edge id=":10242489096_1" function="internal">
        <lane id=":10242489096_1_0" index="0" allow="pedestrian delivery bicycle" speed="5.56" length="11.08" shape="256248.26,2710766.55 256239.44,2710759.85"/>
    </edge>
    <edge id=":10242489096_2" function="internal">
        <lane id=":10242489096_2_0" index="0" allow="pedestrian delivery bicycle" speed="5.56" length="11.41" shape="256248.26,2710766.55 256245.96,2710764.27 256245.15,2710761.94 256245.83,2710759.57 256248.00,2710757.16"/>
    </edge>
    <edge id=":10242489096_3" function="internal">
        <lane id=":10242489096_3_0" index="0" allow="pedestrian delivery bicycle" speed="4.83" length="5.31" shape="256250.05,2710759.62 256249.04,2710760.74 256248.73,2710761.84 256249.10,2710762.92 256250.17,2710763.98"/>
    </edge>
    <edge id=":10242489096_4" function="internal">
        <lane id=":10242489096_4_0" index="0" allow="pedestrian delivery bicycle" speed="5.56" length="11.05" shape="256250.05,2710759.62 256241.56,2710766.69"/>
    </edge>
    <edge id=":10242489096_5" function="internal">
        <lane id=":10242489096_5_0" index="0" allow="pedestrian delivery bicycle" speed="5.56" length="11.61" shape="256250.05,2710759.62 256247.42,2710761.28 256244.77,2710761.87 256242.11,2710761.39 256239.44,2710759.85"/>
    </edge>
    <edge id=":10242489096_6" function="internal">
        <lane id=":10242489096_6_0" index="0" allow="pedestrian delivery bicycle" speed="5.56" length="7.22" shape="256241.40,2710757.32 256243.06,2710758.28 256244.71,2710758.57 256246.36,2710758.20 256248.00,2710757.16"/>
    </edge>
    <edge id=":10242489096_7" function="internal">
        <lane id=":10242489096_7_0" index="0" allow="pedestrian delivery bicycle" speed="5.56" length="11.01" shape="256241.40,2710757.32 256250.17,2710763.98"/>
    </edge>
    <edge id=":10242489096_8" function="internal">
        <lane id=":10242489096_8_0" index="0" allow="pedestrian delivery bicycle" speed="5.56" length="11.32" shape="256241.40,2710757.32 256243.63,2710759.63 256244.40,2710761.96 256243.71,2710764.31 256241.56,2710766.69"/>
    </edge>
    <edge id=":10242489096_9" function="internal">
        <lane id=":10242489096_9_0" index="0" allow="pedestrian delivery bicycle" speed="4.84" length="5.28" shape="256239.51,2710764.23 256240.52,2710763.12 256240.84,2710762.02 256240.48,2710760.93 256239.44,2710759.85"/>
    </edge>
    <edge id=":10242489096_10" function="internal">
        <lane id=":10242489096_10_0" index="0" allow="pedestrian delivery bicycle" speed="5.56" length="11.04" shape="256239.51,2710764.23 256248.00,2710757.16"/>
    </edge>
    <edge id=":10242489096_11" function="internal">
        <lane id=":10242489096_11_0" index="0" allow="pedestrian delivery bicycle" speed="5.56" length="11.62" shape="256239.51,2710764.23 256242.13,2710762.59 256244.77,2710762.01 256247.46,2710762.47 256250.17,2710763.98"/>
    </edge>
    <edge id=":10254037685_0" function="internal">
        <lane id=":10254037685_0_0" index="0" allow="pedestrian delivery bicycle" speed="5.02" length="5.02" shape="256773.85,2710465.91 256772.91,2710466.91 256772.52,2710467.97 256772.68,2710469.09 256773.41,2710470.27"/>
    </edge>
    <edge id=":10254037685_1" function="internal">
        <lane id=":10254037685_1_0" index="0" allow="pedestrian delivery bicycle" speed="5.11" length="5.09" shape="256767.39,2710463.05 256768.41,2710463.95 256769.49,2710464.31 256770.64,2710464.13 256771.86,2710463.41"/>
    </edge>
    <edge id=":10254037685_2" function="internal">
        <lane id=":10254037685_2_0" index="0" allow="pedestrian delivery bicycle" speed="5.56" length="9.40" shape="256767.39,2710463.05 256773.41,2710470.27"/>
    </edge>
    <edge id=":10654963222_0" function="internal">
        <lane id=":10654963222_0_0" index="0" allow="pedestrian delivery bicycle" speed="5.03" length="5.03" shape="257493.86,2709503.24 257492.62,2709503.85 257491.88,2709504.71 257491.64,2709505.81 257491.90,2709507.17"/>
    </edge>
    <edge id=":10654963222_1" function="internal">
        <lane id=":10654963222_1_0" index="0" allow="pedestrian delivery bicycle" speed="5.56" length="6.26" shape="257493.86,2709503.24 257487.94,2709505.28"/>
    </edge>
    <edge id=":10654963222_2" function="internal">
        <lane id=":10654963222_2_0" index="0" allow="pedestrian delivery bicycle" speed="5.04" length="5.12" shape="257488.86,2709498.27 257489.43,2709499.50 257490.29,2709500.23 257491.44,2709500.46 257492.88,2709500.20"/>
    </edge>
    <edge id=":10654963222_3" function="internal">
        <lane id=":10654963222_3_0" index="0" disallow="tram rail_urban rail rail_electric rail_fast ship container cable_car subway aircraft wheelchair scooter drone" speed="13.89" length="9.41" shape="257488.86,2709498.27 257491.90,2709507.17"/>
    </edge>
    <edge id=":10654963222_4" function="internal">
        <lane id=":10654963222_4_0" index="0" allow="pedestrian delivery bicycle" speed="6.21" length="7.69" shape="257488.86,2709498.27 257489.46,2709500.97 257489.50,2709503.04 257489.00,2709504.48 257487.94,2709505.28"/>
    </edge>
    <edge id=":10654963222_5" function="internal">
        <lane id=":10654963222_5_0" index="0" allow="pedestrian delivery bicycle" speed="5.56" length="6.38" shape="257486.84,2709502.28 257492.88,2709500.20"/>
    </edge>
    <edge id=":10654963222_6" function="internal">
        <lane id=":10654963222_6_0" index="0" allow="pedestrian delivery bicycle" speed="6.06" length="7.82" shape="257486.84,2709502.28 257488.29,2709502.17 257489.61,2709502.95 257490.82,2709504.62 257491.90,2709507.17"/>
    </edge>
    <edge id=":10654963322_0" function="internal">
        <lane id=":10654963322_0_0" index="0" disallow="tram rail_urban rail rail_electric rail_fast ship container cable_car subway aircraft wheelchair scooter drone" speed="13.89" length="9.42" shape="257484.61,2709509.77 257481.62,2709500.83"/>
    </edge>
    <edge id=":10654963322_1" function="internal">
        <lane id=":10654963322_1_0" index="0" allow="pedestrian delivery bicycle" speed="6.15" length="7.82" shape="257484.61,2709509.77 257483.91,2709507.10 257483.84,2709505.05 257484.39,2709503.59 257485.57,2709502.74"/>
    </edge>
    <edge id=":10654963322_2" function="internal">
        <lane id=":10654963322_2_0" index="0" allow="pedestrian delivery bicycle" speed="6.05" length="7.85" shape="257486.67,2709505.75 257485.20,2709505.86 257483.87,2709505.08 257482.68,2709503.40 257481.62,2709500.83"/>
    </edge>
    <edge id=":10699374222_0" function="internal">
        <lane id=":10699374222_0_0" index="0" allow="pedestrian delivery bicycle" speed="5.56" length="4.39" shape="258019.98,2710661.36 258018.87,2710660.72 258018.03,2710660.41 258017.13,2710660.32 258015.83,2710660.32"/>
    </edge>
    <edge id=":10699374222_1" function="internal">
        <lane id=":10699374222_1_0" index="0" allow="pedestrian delivery bicycle" speed="5.56" length="7.49" shape="258021.69,2710658.66 258019.74,2710657.57 258018.34,2710656.87 258017.13,2710655.97 258015.73,2710654.30"/>
    </edge>
    <edge id=":10699374223_0" function="internal">
        <lane id=":10699374223_0_0" index="0" allow="pedestrian delivery bicycle" speed="5.56" length="6.21" shape="258012.67,2710660.31 258011.45,2710660.56 258010.33,2710661.32 258009.31,2710662.58 258008.41,2710664.35"/>
    </edge>
    <edge id=":10699374223_1" function="internal">
        <lane id=":10699374223_1_0" index="0" allow="pedestrian delivery bicycle" speed="5.56" length="6.94" shape="258012.67,2710660.31 258010.62,2710660.34 258009.21,2710660.45 258007.81,2710660.66 258005.78,2710661.00"/>
    </edge>
    <edge id=":10699374227_0" function="internal">
        <lane id=":10699374227_0_0" index="0" allow="pedestrian delivery bicycle" speed="5.56" length="6.16" shape="258083.41,2710552.35 258082.72,2710554.04 258082.24,2710555.19 258081.83,2710556.38 258081.36,2710558.14"/>
    </edge>
    <edge id=":10699374227_1" function="internal">
        <lane id=":10699374227_1_0" index="0" allow="pedestrian delivery bicycle" speed="5.12" length="5.01" shape="258083.41,2710552.35 258082.75,2710553.52 258081.85,2710554.21 258080.73,2710554.43 258079.37,2710554.17"/>
    </edge>
    <edge id=":10699374229_0" function="internal">
        <lane id=":10699374229_0_0" index="0" allow="pedestrian delivery bicycle" speed="5.56" length="7.27" shape="258040.48,2710539.90 258043.05,2710533.10"/>
    </edge>
    <edge id=":10699374229_1" function="internal">
        <lane id=":10699374229_1_0" index="0" allow="pedestrian delivery bicycle" speed="5.56" length="6.88" shape="258040.48,2710539.90 258041.12,2710538.88 258042.24,2710537.90 258043.87,2710536.95 258045.98,2710536.04"/>
    </edge>
    <edge id=":10699374243_0" function="internal">
        <lane id=":10699374243_0_0" index="0" allow="pedestrian delivery bicycle" speed="5.56" length="5.90" shape="258137.01,2710595.08 258137.81,2710595.65 258139.02,2710596.05 258140.63,2710596.27 258142.65,2710596.31"/>
    </edge>
    <edge id=":10699374243_1" function="internal">
        <lane id=":10699374243_1_0" index="0" allow="pedestrian delivery bicycle" speed="5.56" length="4.91" shape="258137.01,2710595.08 258137.98,2710596.17 258138.63,2710596.93 258139.23,2710597.72 258140.10,2710598.90"/>
    </edge>
    <edge id=":10699374245_0" function="internal">
        <lane id=":10699374245_0_0" index="0" allow="pedestrian delivery bicycle" speed="5.56" length="6.23" shape="258092.03,2710572.78 258097.52,2710575.71"/>
    </edge>
    <edge id=":10699374245_1" function="internal">
        <lane id=":10699374245_1_0" index="0" allow="pedestrian delivery bicycle" speed="5.37" length="5.21" shape="258092.03,2710572.78 258093.07,2710573.57 258093.65,2710574.58 258093.77,2710575.81 258093.42,2710577.26"/>
    </edge>
    <edge id=":10699374246_0" function="internal">
        <lane id=":10699374246_0_0" index="0" allow="pedestrian delivery bicycle" speed="5.56" length="6.16" shape="258106.90,2710580.09 258112.64,2710582.35"/>
    </edge>
    <edge id=":10699374246_1" function="internal">
        <lane id=":10699374246_1_0" index="0" allow="pedestrian delivery bicycle" speed="5.03" length="5.01" shape="258108.64,2710584.15 258109.30,2710582.95 258110.18,2710582.25 258111.30,2710582.05 258112.64,2710582.35"/>
    </edge>
    <edge id=":10699374247_0" function="internal">
        <lane id=":10699374247_0_0" index="0" allow="pedestrian delivery bicycle" speed="5.56" length="6.25" shape="258125.62,2710587.71 258127.32,2710588.46 258128.51,2710588.93 258129.65,2710589.47 258131.22,2710590.44"/>
    </edge>
    <edge id=":10699374247_1" function="internal">
        <lane id=":10699374247_1_0" index="0" allow="pedestrian delivery bicycle" speed="4.84" length="5.30" shape="258127.14,2710592.03 258127.89,2710590.64 258128.82,2710589.91 258129.94,2710589.85 258131.22,2710590.44"/>
    </edge>
    <edge id=":10699374263_0" function="internal">
        <lane id=":10699374263_0_0" index="0" allow="pedestrian delivery bicycle" speed="5.56" length="8.56" shape="258147.40,2710726.55 258145.57,2710724.92 258143.99,2710724.24 258142.19,2710723.91 258139.70,2710723.31"/>
    </edge>
    <edge id=":10699374263_1" function="internal">
        <lane id=":10699374263_1_0" index="0" allow="pedestrian delivery bicycle" speed="5.56" length="10.42" shape="258147.40,2710726.55 258145.75,2710724.37 258144.66,2710722.05 258144.13,2710719.58 258144.17,2710716.98"/>
    </edge>
    <edge id=":10699374263_2" function="internal">
        <lane id=":10699374263_2_0" index="0" allow="pedestrian delivery bicycle" speed="5.56" length="9.57" shape="258148.14,2710715.49 258147.52,2710717.93 258147.58,2710720.22 258148.32,2710722.38 258149.76,2710724.39"/>
    </edge>
    <edge id=":10699374263_3" function="internal">
        <lane id=":10699374263_3_0" index="0" allow="pedestrian delivery bicycle" speed="5.56" length="12.61" shape="258148.14,2710715.49 258146.26,2710719.48 258144.23,2710722.11 258142.04,2710723.38 258139.70,2710723.31"/>
    </edge>
    <edge id=":10699374263_4" function="internal">
        <lane id=":10699374263_4_0" index="0" allow="pedestrian delivery bicycle" speed="5.07" length="5.78" shape="258140.52,2710720.21 258141.93,2710720.38 258143.00,2710719.89 258143.75,2710718.76 258144.17,2710716.98"/>
    </edge>
    <edge id=":10699374263_5" function="internal">
        <lane id=":10699374263_5_0" index="0" allow="pedestrian delivery bicycle" speed="5.56" length="10.38" shape="258140.52,2710720.21 258143.50,2710720.97 258145.66,2710721.48 258147.56,2710722.39 258149.76,2710724.39"/>
    </edge>
    <edge id=":10699374266_0" function="internal">
        <lane id=":10699374266_0_0" index="0" allow="pedestrian delivery bicycle" speed="5.56" length="9.95" shape="258159.57,2710743.94 258158.05,2710746.45 258156.81,2710748.04 258155.44,2710749.54 258153.48,2710751.76"/>
    </edge>
    <edge id=":10699374266_1" function="internal">
        <lane id=":10699374266_1_0" index="0" allow="pedestrian delivery bicycle" speed="5.56" length="10.71" shape="258159.57,2710743.94 258158.07,2710745.65 258155.96,2710746.49 258153.25,2710746.43 258149.93,2710745.50"/>
    </edge>
    <edge id=":10699374266_2" function="internal">
        <lane id=":10699374266_2_0" index="0" allow="pedestrian delivery bicycle" speed="5.56" length="6.46" shape="258151.08,2710742.51 258153.19,2710743.14 258154.88,2710743.26 258156.15,2710742.88 258157.00,2710741.98"/>
    </edge>
    <edge id=":10699374266_3" function="internal">