<?xml version="1.0" encoding="UTF-8"?>

<!-- generated on 2026-04-05 14:01:21.328108 by Eclipse SUMO randomTrips.py v0.0.0
<configuration>
    <net-file value="/Users/karimboubouh/Workspace/R/sumo/scenarios/yas_island/network.net.xml"/>
    <output-trip-file value="/Users/karimboubouh/Workspace/R/sumo/scenarios/yas_island/trips.xml"/>
    <route-file value="/Users/karimboubouh/Workspace/R/sumo/scenarios/yas_island/routes.rou.xml"/>
    <end value="50.0"/>
    <period value="1.0"/>
</configuration>
-->

<!-- generated on 2026-04-05T14:01:21.322488+04:00 by Eclipse SUMO duarouter 1.26.0
<duarouterConfiguration xmlns:xsi="http://www.w3.org/2001/XMLSchema-instance" xsi:noNamespaceSchemaLocation="http://sumo.dlr.de/xsd/duarouterConfiguration.xsd">

    <input>
        <net-file value="/Users/karimboubouh/Workspace/R/sumo/scenarios/yas_island/network.net.xml"/>
        <route-files value="/Users/karimboubouh/Workspace/R/sumo/scenarios/yas_island/trips.xml"/>
    </input>

    <output>
        <output-file value="/Users/karimboubouh/Workspace/R/sumo/scenarios/yas_island/routes.rou.xml"/>
        <alternatives-output value="NUL"/>
    </output>

    <time>
        <begin value="0.0"/>
        <end value="50.0"/>
    </time>

    <report>
        <no-warnings value="true"/>
        <ignore-errors value="true"/>
        <no-step-log value="true"/>
    </report>

</duarouterConfiguration>
-->

<routes xmlns:xsi="http://www.w3.org/2001/XMLSchema-instance" xsi:noNamespaceSchemaLocation="http://sumo.dlr.de/xsd/routes_file.xsd">
    <vehicle id="0" depart="0.00">
        <route edges="1327346788 435146723#0 435146723#1-AddedOnRampEdge 435146723#1 435146723#2 435146723#3 1327346801 1327346797#2 1327346798#0 1327346798#0-AddedOffRampEdge 168413847#0 435146728#1-AddedOnRampEdge 435146728#1 435146728#2 435146728#3 1327346775 817566576 1327346776 817566575#0 817566575#1-AddedOnRampEdge 817566575#1 817566575#1-AddedOffRampEdge 817566575#2 1327346768 1327346769"/>
    </vehicle>
    <vehicle id="1" depart="1.00">
        <route edges="482548902#0 1327346778 1327346774 817566572#0 817566572#1-AddedOnRampEdge 817566572#1 817571144#0 1327346785 1327346782 435146711#1 435146711#2 435146711#3 482541620#0 482541620#1 482541620#4 312970179#0 312970179#1 312970179#2 515297780#0 515297780#1 515297780#2 515297781#0 515297781#1 697862835#1 697862835#2 312973285 435148794#9 435148794#10"/>
    </vehicle>
    <vehicle id="2" depart="2.00">
        <route edges="696931920#7 1327346781 1327346776 817566575#0 817566575#1-AddedOnRampEdge 817566575#1 817566575#1-AddedOffRampEdge 172288852#0 482540857#1-AddedOnRampEdge 482540857#1 817548848#0 817548856 1327346766 663757517#0 663757517#1 663757517#2 663757516#1 663757516#2 663757516#3 685708313 685708311#0 685708311#1 685708307 685708308#2 685708308#1 -685708307"/>
    </vehicle>
    <vehicle id="3" depart="3.00">
        <route edges="1327346763 817548853 817548854 1327346762 1327346773#0-AddedOnRampEdge 1327346773#0 1327346773#0-AddedOffRampEdge 482540859#0 817553129 817553127 817553127-AddedOffRampEdge 312817000#0 1327346777 817566573 1327346774 817566572#0 817566572#1-AddedOnRampEdge 817566572#1 817571144#0 1327346785 1327346782 435146711#1 435146711#2 435146711#3 482541620#0 482541620#1 482541620#4 312970179#0 312970179#1 312970179#2 515297780#0 515297780#1 515297780#2 515297781#0 515297781#1 697862835#1 697862835#2 312973364"/>
    </vehicle>
    <vehicle id="4" depart="4.00">
        <route edges="1327346764 817548850#0 817548850#1 817548850#2 474686758#0 474686758#1 1327346765 817548857 817548852 817548853 817548854 1327346762 1327346773#0-AddedOnRampEdge 1327346773#0 1327346773#0-AddedOffRampEdge 482540859#0 817553129 817553127 817553127-AddedOffRampEdge 312817000#0 1327346777 817566573 1327346774 817566572#0 817566572#1-AddedOnRampEdge 817566572#1 817571144#0 1327346785 1327346782 435146711#1 435146711#2 435146711#3 482541620#0 482541620#1 482541620#4 238962403#0 238962403#1 238962403#2 435147580#0 435147580#2 435147580#2-AddedOffRampEdge 238962394#0 236239240#1 236239240#2 313023559 685524251#1 515715369#1 516408354 515715373#1 515715373#2 313393114#1 435148790#0 435148790#1 435148790#2 435148790#3 435148790#4 435148788 313392715#2"/>
    </vehicle>
    <vehicle id="5" depart="5.00">
        <route edges="515982619#3 227208572#0 817566572#1-AddedOnRampEdge 817566572#1 817571144#0 1327346785 1327346782 435146711#1 435146711#2 435146711#3 482541620#0 482541620#1 482541620#4 238962403#0 238962403#1 238962403#2 435147580#0 435147580#2 435147580#2-AddedOffRampEdge 238962394#0 236239240#1 236239240#2 236239240#3 236239240#4 236239240#5 236239240#6 474705894#0 474705894#1"/>
    </vehicle>
    <vehicle id="6" depart="6.00">
        <route edges="-685708307 685708311#2 685708311#3 685708310#6 685708310#7 685708310#1 685708310#2 685708310#3 685708310#4 685708310#5 -685708311#3"/>
    </vehicle>
    <vehicle id="7" depart="7.00">
        <route edges="663757517#1 663757517#2 663757516#1 663757516#2 663757516#3 663757516#4 663757516#5 238969124#0 238969124#1 238969129 1327346773#0-AddedOnRampEdge 1327346773#0 1327346773#0-AddedOffRampEdge 482540859#0 817553129 817553127 817553127-AddedOffRampEdge 227208574#0 318233438#0"/>
    </vehicle>
    <vehicle id="8" depart="8.00">
        <route edges="515982619#3 227208572#0 817566572#1-AddedOnRampEdge 817566572#1 817571144#0 1327346785 1327346782 435146711#1 435146711#2 435146711#3 482541620#0 482541620#1"/>
    </vehicle>
    <vehicle id="9" depart="9.00">
        <route edges="685708311#3 685708310#6 685708310#7 685708310#1 685708310#2 685708310#3 685708310#4 685708310#5 -685708311#3 -685708311#2 -685708311#1 1159906026 238969124#1 238969129 1327346773#0-AddedOnRampEdge 1327346773#0 1327346773#0-AddedOffRampEdge 482540859#0 817553129 817553127 817553127-AddedOffRampEdge 312817000#0 1327346777 817566573 1327346774 817566572#0 817566572#1-AddedOnRampEdge 817566572#1 312816999#0 312814864#1-AddedOnRampEdge 312814864#1 1158406409#0 1158406409#2 1158406409#3 313132462#0 313132462#1 313132462#2 313132462#3 313132462#4 313132462#5 313132462#6 313132463#0 313132463#1 313132463#2 313132463#3"/>
    </vehicle>
    <vehicle id="10" depart="10.00">
        <route edges="1327346768 817553129 817553127 817553127-AddedOffRampEdge 312817000#0 1327346777 817566573 1327346774 817566572#0 817566572#1-AddedOnRampEdge 817566572#1 817571144#0 1327346785 1327346788 435146723#0 435146723#1-AddedOnRampEdge 435146723#1 435146723#2 435146723#3 1327346801 1327346797#2"/>
    </vehicle>
    <vehicle id="11" depart="11.00">
        <route edges="435146723#1 435146723#2 435146723#3 1327346801 1327346797#2 1327346798#0 1327346798#0-AddedOffRampEdge 1327346798#1 1327346789 1327346782 435146711#1 435146711#2 435146711#3 482541620#0 482541620#1 482541620#4 238962403#0 238962403#1 238962403#2 435147580#0 435147580#2 435147580#2-AddedOffRampEdge 238962394#0 236239240#1 236239240#2"/>
    </vehicle>
    <vehicle id="12" depart="12.00">
        <route edges="1327346784 435146728#0 435146728#1-AddedOnRampEdge 435146728#1 435146728#2 435146728#3 1327346775 817566576 1327346776 817566575#0 817566575#1-AddedOnRampEdge 817566575#1 817566575#1-AddedOffRampEdge 172288852#0 482540857#1-AddedOnRampEdge 482540857#1 482540857#2 482540857#3 1327346761 817548849 1327346760 1327346757#0 1327346757#1-AddedOnRampEdge 1327346757#1 1327346757#1-AddedOffRampEdge 1327346757#2 1327346756#1 817548858#0"/>
    </vehicle>
    <vehicle id="13" depart="13.00">
        <route edges="435146728#1-AddedOnRampEdge 435146728#1 817566570#0 817566577 817566574 1327346779 318233438#0 318233438#1 280714665 280714664#0 280714664#1 280714669 318233441#1"/>
    </vehicle>
    <vehicle id="14" depart="14.00">
        <route edges="1197605333 312472261#0 312472262#0 312472262#1 1327092335#0 1327092335#1 312472263 -312472261#0 1197605334 -280714664#4 -280714664#3 -280714664#2 -280714664#1 -280714664#0 280714666 515982619#1 515982619#2 515982619#3 227208572#0 817566572#1-AddedOnRampEdge 817566572#1 817571144#0 1327346785 1327346782 435146711#1 435146711#2 435146711#3 482541620#0 482541620#1"/>
    </vehicle>
    <vehicle id="15" depart="15.00">
        <route edges="817578874#1 817578874#2 817578874#3 817578874#4 817578874#5 313132462#6 313132462#7 313132462#8 515982619#3 227208572#0 817566572#1-AddedOnRampEdge 817566572#1 817571144#0 1327346785 1327346788 435146723#0 435146723#1-AddedOnRampEdge 435146723#1 435146723#2 435146723#3"/>
    </vehicle>
    <vehicle id="16" depart="16.00">
        <route edges="168413847#0 435146728#1-AddedOnRampEdge 435146728#1 817566570#0 817566577 817566573 1327346774 817566572#0 817566572#1-AddedOnRampEdge 817566572#1 817571144#0 1327346785 1327346787"/>
    </vehicle>
    <vehicle id="17" depart="17.00">
        <route edges="1327346757#2 1327346756#1 817548858#0 817548858#1 817548858#2 817548858#3"/>
    </vehicle>
    <vehicle id="18" depart="18.00">
        <route edges="817548848#0 817548856 817548853 817548854 1327346762 1327346773#0-AddedOnRampEdge 1327346773#0 1327346773#0-AddedOffRampEdge 482540859#0 817553129 817553127 817553127-AddedOffRampEdge 227208574#0 318233438#0 318233438#1 280714665 280714664#0 280714664#1 280714664#2 280714664#3 280714664#4 1197605333 312472261#0 312472262#0 312472262#1 1327092335#0 1327092335#1 312472265"/>
    </vehicle>
    <vehicle id="19" depart="19.00">
        <route edges="1327346783 1327346784 435146728#0 435146728#1-AddedOnRampEdge 435146728#1 435146728#2 435146728#3 1327346775 817566576 1327346776 817566575#0 817566575#1-AddedOnRampEdge 817566575#1 817566575#1-AddedOffRampEdge 817566575#2 1327346768 817553129 817553127 817553127-AddedOffRampEdge 312817000#0 1327346777"/>
    </vehicle>
    <vehicle id="20" depart="20.00">
        <route edges="313132462#2 313132462#3 313132462#4 313132462#5 313132462#6 313132462#7 313132462#8 515982619#3 227208572#0 817566572#1-AddedOnRampEdge 817566572#1 817571144#0 1327346785"/>
    </vehicle>
    <vehicle id="21" depart="21.00">
        <route edges="313132466 313132462#8 515982619#3 227208572#0 817566572#1-AddedOnRampEdge 817566572#1 817571144#0 1327346785 1327346782 435146711#1 435146711#2 435146711#3 482541620#0 482541620#1 482541620#4 312970179#0 312970179#1 312976991#0 312976991#1 312976991#2 312976991#3 312976991#4 312976991#5 697862834 1158385644#0 1158385644#1 515297783#1 515297783#2 697862835#0"/>
    </vehicle>
    <vehicle id="22" depart="22.00">
        <route edges="238966538#0-AddedOffRampEdge 238966538#1 1327346797#2 1327346798#0 1327346798#0-AddedOffRampEdge 168413847#0 435146728#1-AddedOnRampEdge 435146728#1 435146728#2 435146728#3 1327346775 817566576 1327346776 817566575#0 817566575#1-AddedOnRampEdge 817566575#1 817566575#1-AddedOffRampEdge 172288852#0 482540857#1-AddedOnRampEdge 482540857#1 817548848#0 817548856 1327346766 663757517#0 663757517#1 663757517#2 663757516#1 663757516#2 663757516#3 663757516#4 663757516#5 238969124#0 238969124#1 238969124#2 1327346767"/>
    </vehicle>
    <vehicle id="23" depart="23.00">
        <route edges="817578874#5 313132462#6 313132462#7 313132462#8 515982619#3 227208572#0 817566572#1-AddedOnRampEdge 817566572#1 817571144#0 1327346785 1327346782 435146711#1 435146711#2 435146711#3 482541620#0 482541620#1 482541620#4 312970179#0 312970179#1 312976991#0 312976991#1"/>
    </vehicle>
    <vehicle id="24" depart="24.00">
        <route edges="-516407389 -1197605335#0 1158406405#0 1197605334 -280714664#4"/>
    </vehicle>
    <vehicle id="25" depart="25.00">
        <route edges="-313132463#4 -313132463#3 -313132463#2 -313132463#1 -313132463#0 313132466 313132462#8 515982619#3 227208572#0 817566572#1-AddedOnRampEdge 817566572#1 817571144#0 1327346785 1327346782 435146711#1 435146711#2 435146711#3 482541620#0 482541620#1 482541620#4 238962403#0 238962403#1"/>
    </vehicle>
    <vehicle id="26" depart="26.00">
        <route edges="817578874#5 313132462#6 313132462#7 313132462#8 515982619#3 227208572#0 817566572#1-AddedOnRampEdge 817566572#1 817571144#0 1327346785 1327346782 435146711#1 435146711#2 435146711#3 482541620#0 482541620#1 482541620#4 238962403#0 238962403#1 238962403#2 435147580#0 435147580#2 435147580#2-AddedOffRampEdge 238962394#0 236239240#1 236239240#2 313023559 685524251#1 515715369#1 516408354 515715373#1 515715373#2 313393114#1 435148790#0 435148790#1 435148790#2 435148790#3 435148790#4 435148788 313392715#2 313024832#0"/>
    </vehicle>
    <vehicle id="27" depart="27.00">
        <route edges="817566575#1 817566575#1-AddedOffRampEdge 172288852#0 482540857#1-AddedOnRampEdge 482540857#1 817548848#0 817548856 1327346766 663757517#0 663757517#1 663757517#2 663757516#1 663757516#2 663757516#3 685708313 685708311#0 685708311#1 685708311#2 685708311#3"/>
    </vehicle>
    <vehicle id="28" depart="28.00">
        <route edges="435148794#11 435146705#0 1327346782 435146711#1 435146711#2 435146711#3 482541620#0 482541620#1 482541620#4 238962403#0 238962403#1 238962403#2 435147580#0 435147580#2 435147580#2-AddedOffRampEdge 238962394#0 236239240#1 236239240#2 313023559 685524251#1 515715369#1 516408354 515715373#1 515715373#2 313393114#1 435148790#0 435148790#1 435148790#2 435148790#3 435148790#4 435148788 313392715#2 313024832#0 313024832#1 313024832#2 313024832#3 313024832#4"/>
    </vehicle>
    <vehicle id="29" depart="29.00">
        <route edges="1327346784 435146728#0 435146728#1-AddedOnRampEdge 435146728#1 817566570#0 817566577 817566573 1327346774 817566572#0 817566572#1-AddedOnRampEdge 817566572#1 817571144#0 1327346785 1327346788 435146723#0 435146723#1-AddedOnRampEdge 435146723#1 435146723#2 435146723#3"/>
    </vehicle>
    <vehicle id="30" depart="30.00">
        <route edges="696758583 253286290 482548905 435146711#3 482541620#0 482541620#1 482541620#4 312970179#0 312970179#1 312970179#2 515297780#0 515297780#1 515297780#2 515297781#0 515297781#1 697862835#1 697862835#2 312973285 435148794#9 435148794#10 435148794#11 435146705#0 1327346784 435146728#0 435146728#1-AddedOnRampEdge 435146728#1 817566570#0 817566577 817566573 1327346774 817566572#0 817566572#1-AddedOnRampEdge 817566572#1 817571144#0 1327346785"/>
    </vehicle>
    <vehicle id="31" depart="31.00">
        <route edges="312970179#0 312970179#1 312970179#2 515297780#0 515297780#1 515297780#2 515297781#0 515297781#1 697862835#1 697862835#2 312973285 435148794#9 435148794#10 435148794#11 435146705#0 1327346784 435146728#0 435146728#1-AddedOnRampEdge 435146728#1 817566570#0 817566577 817566574 1327346779 318233438#0 318233438#1 280714665 280714664#0 280714664#1 280714669 318233441#1 1266783512"/>
    </vehicle>
    <vehicle id="32" depart="32.00">
        <route edges="1327346798#0 1327346798#0-AddedOffRampEdge 168413847#0 435146728#1-AddedOnRampEdge 435146728#1 817566570#0 817566577 817566573 1327346774 817566572#0 817566572#1-AddedOnRampEdge 817566572#1 817571144#0 1327346785 1327346788 435146723#0 435146723#1-AddedOnRampEdge 435146723#1 435146723#2"/>
    </vehicle>
    <vehicle id="33" depart="33.00">
        <route edges="515297780#2 515297781#0 515297781#1 697862835#1 697862835#2 312973364 482541620#1 482541620#4 238962403#0 238962403#1 238962403#2 435147580#0 435147580#2 435147580#2-AddedOffRampEdge 238962394#0 236239240#1 236239240#2 313023559 685524251#1 515715369#1 516408354 515715373#1 515715373#2 313393114#1 435148790#0 435148790#1 435148790#2 435148790#3 435148790#4 435148788 313392715#2 313024832#0 313024832#1 313024832#2 313024832#3 313024832#4 313024832#5"/>
    </vehicle>
    <vehicle id="34" depart="34.00">
        <route edges="515297783#3 515297783#4 515297783#5 515297781#1 697862835#1 697862835#2 312973364 482541620#1 482541620#4 238962403#0 238962403#1 238962403#2 435147580#0 435147580#2 435147580#2-AddedOffRampEdge 238962394#0 236239240#1 236239240#2 313023559 685524251#1 515715369#1 516408354 515715373#1 515715373#2 313393114#1 435148790#0 435148790#1 435148790#2 435148790#3 435148790#4 435148788 313392715#2 313024832#0 313024832#1"/>
    </vehicle>
    <vehicle id="35" depart="35.00">
        <route edges="-1197605335#0 1158406405#0 1197605334 -280714664#4 -280714664#3 -280714664#2 -280714664#1 -280714664#0 280714666 515982619#1 515982619#2 515982619#3 482548902#0 1327346778 817566571 817566578 817566576 1327346776 817566575#0 817566575#1-AddedOnRampEdge 817566575#1 817566575#1-AddedOffRampEdge 172288852#0 482540857#1-AddedOnRampEdge 482540857#1 817548848#0 817548856 817548853 817548854"/>
    </vehicle>
    <vehicle id="36" depart="36.00">
        <route edges="1327346801 1327346797#2 1327346798#0 1327346798#0-AddedOffRampEdge 1327346798#1 1327346789 1327346787 312814864#0 312814864#1-AddedOnRampEdge 312814864#1 1158406409#0 -313132463#4 -313132463#3"/>
    </vehicle>
    <vehicle id="37" depart="37.00">
        <route edges="696931920#0 696931920#1 696931920#2 696931920#3 696931920#4 696931920#5 696931920#6 516726472 817566575#1-AddedOnRampEdge 817566575#1 817566575#1-AddedOffRampEdge 817566575#2 1327346768 817553129 817553127 817553127-AddedOffRampEdge"/>
    </vehicle>
    <vehicle id="38" depart="38.00">
        <route edges="1327346783 1327346784 435146728#0 435146728#1-AddedOnRampEdge 435146728#1 435146728#2 435146728#3 1327346775 817566576 1327346776 817566575#0 817566575#1-AddedOnRampEdge 817566575#1 817566575#1-AddedOffRampEdge 172288852#0 482540857#1-AddedOnRampEdge 482540857#1 482540857#2 238969126 817548850#1 817548850#2 685709012"/>
    </vehicle>
    <vehicle id="39" depart="39.00">
        <route edges="817578874#4 817578874#5 313132462#6 313132462#7 313132462#8 515982619#3 227208572#0 817566572#1-AddedOnRampEdge 817566572#1 817571144#0 1327346785 1327346788 435146723#0 435146723#1-AddedOnRampEdge 435146723#1 435146723#2 435146723#3 1327346801 1327346797#2 1327346798#0 1327346798#0-AddedOffRampEdge 168413847#0 435146728#1-AddedOnRampEdge 435146728#1 435146728#2 435146728#3"/>
    </vehicle>
    <vehicle id="40" depart="40.00">
        <route edges="280714664#4 1197605333 312472261#0 312472262#0 312472262#1 1327092335#0 1327092335#1 312472263 -312472261#0 1197605334 -280714664#4 -280714664#3 -280714664#2 -280714664#1 -280714664#0 280714666 515982619#1 515982619#2 515982619#3 227208572#0 817566572#1-AddedOnRampEdge 817566572#1 817571144#0 1327346785 1327346782 435146711#1 435146711#2 435146711#3 482541620#0 482541620#1 482541620#4 312970179#0 312970179#1 312976991#0 312976991#1 312976991#2 312976991#3 312976991#4 312976991#5"/>
    </vehicle>
    <vehicle id="41" depart="41.00">
        <route edges="1327346769 482540857#0 482540857#1-AddedOnRampEdge 482540857#1 817548848#0 817548856 1327346766 663757517#0 663757517#1 663757517#2 663757516#1 663757516#2 663757516#3 663757516#4 663757516#5 238969124#0 238969124#1 238969124#2 1327346767"/>
    </vehicle>
    <vehicle id="42" depart="42.00">
        <route edges="1327346773#0 1327346773#0-AddedOffRampEdge 482540859#0 817553129 817553127 817553127-AddedOffRampEdge 312817000#0 1327346777 817566573 1327346774 817566572#0 817566572#1-AddedOnRampEdge 817566572#1 817571144#0 1327346785 1327346782 435146711#1 435146711#2 435146711#3 482541620#0 482541620#1 482541620#4 238962403#0 238962403#1 238962403#2 435147580#0 435147580#2 435147580#2-AddedOffRampEdge 238962394#0 236239240#1 236239240#2 313023559 685524251#1 515715369#1 516408354 515715373#1 515715373#2 313393114#1 435148790#0 435148790#1 435148790#2"/>
    </vehicle>
    <vehicle id="43" depart="43.00">
        <route edges="817548856 817548853 817548854 1327346762 1327346773#0-AddedOnRampEdge 1327346773#0 1327346773#0-AddedOffRampEdge 482540859#0 817553129 817553127 817553127-AddedOffRampEdge 312817000#0 1327346777 817566573 1327346774 817566572#0 817566572#1-AddedOnRampEdge 817566572#1 312816999#0 312814864#1-AddedOnRampEdge 312814864#1 1158406409#0 -313132463#4 -313132463#3 -313132463#2 -313132463#1 -313132463#0 313132466 313132462#8"/>
    </vehicle>
    <vehicle id="44" depart="44.00">
        <route edges="312814864#1-AddedOnRampEdge 312814864#1 1158406409#0 1158406409#2 1158406409#3 817578874#0 817578874#1 817578874#2 515707665"/>
    </vehicle>
    <vehicle id="45" depart="45.00">
        <route edges="-685708311#0 685708312 663757516#5 238969124#0 238969124#1 238969129 1327346773#0-AddedOnRampEdge 1327346773#0 1327346773#0-AddedOffRampEdge 482540859#0 817553129 817553127 817553127-AddedOffRampEdge 227208574#0 318233438#0 318233438#1 280714665"/>
    </vehicle>
    <vehicle id="46" depart="46.00">
        <route edges="280714661 -280714664#3 -280714664#2 -280714664#1 -280714664#0 280714666 515982619#1 515982619#2 515982619#3 227208572#0 817566572#1-AddedOnRampEdge 817566572#1 312816999#0 312814864#1-AddedOnRampEdge 312814864#1"/>
    </vehicle>
    <vehicle id="47" depart="47.00">
        <route edges="482541620#1 482541620#4 238962403#0 238962403#1 238962403#2 435147580#0 435147580#2 435147580#2-AddedOffRampEdge 238962394#0 236239240#1 236239240#2 313023559 685524251#1 515715369#1 516408354 515715373#1 515715373#2 313393114#1 435148790#0 435148790#1 435148790#2 435148790#3 435148790#4"/>
    </vehicle>
    <vehicle id="48" depart="48.00">
        <route edges="817571144#0 1327346785 1327346788 435146723#0 435146723#1-AddedOnRampEdge 435146723#1 435146723#2 435146723#3 1327346801 1327346797#2 1327346798#0 1327346798#0-AddedOffRampEdge 168413847#0 435146728#1-AddedOnRampEdge 435146728#1 435146728#2 435146728#3 1327346775 817566576 1327346776 817566575#0 817566575#1-AddedOnRampEdge 817566575#1 817566575#1-AddedOffRampEdge 172288852#0 482540857#1-AddedOnRampEdge 482540857#1 482540857#2 238969126 817548850#1 817548850#2 685709012 685709011#3 685709011#1 685709011#2 -685709012"/>
    </vehicle>
    <vehicle id="49" depart="49.00">
        <route edges="685708311#3 685708310#6 685708310#7 685708310#1 685708310#2 685708310#3 685708310#4 685708310#5 -685708311#3 -685708311#2 -685708311#1 1159906026 238969124#1 238969129 1327346773#0-AddedOnRampEdge 1327346773#0 1327346773#0-AddedOffRampEdge 482540859#0 817553129 817553127 817553127-AddedOffRampEdge 227208574#0 318233438#0 318233438#1 280714665 280714666 515982619#1 515982619#2 515982619#3 482548902#0 1327346778"/>
    </vehicle>
</routes>
