<?xml version="1.0" encoding="UTF-8"?>

<!-- generated on 2026-03-27T12:44:30.261118+04:00 by Eclipse SUMO netconvert 1.26.0
<netconvertConfiguration xmlns:xsi="http://www.w3.org/2001/XMLSchema-instance" xsi:noNamespaceSchemaLocation="http://sumo.dlr.de/xsd/netconvertConfiguration.xsd">

    <input>
        <osm-files value="/Users/karimboubouh/Workspace/R/sumo/scenarios/dubai_marina/map.osm"/>
    </input>

    <output>
        <output-file value="/Users/karimboubouh/Workspace/R/sumo/scenarios/dubai_marina/network.net.xml"/>
    </output>

    <projection>
        <proj.utm value="true"/>
    </projection>

    <processing>
        <geometry.remove value="true"/>
        <offset.disable-normalization value="true"/>
    </processing>

    <tls_building>
        <tls.discard-simple value="true"/>
        <tls.join value="true"/>
        <tls.guess-signals value="true"/>
    </tls_building>

    <ramp_guessing>
        <ramps.guess value="true"/>
    </ramp_guessing>

    <junctions>
        <no-turnarounds value="true"/>
        <junctions.join value="true"/>
    </junctions>

</netconvertConfiguration>
-->

<net version="1.20" junctionCornerDetail="5" limitTurnSpeed="5.50" xmlns:xsi="http://www.w3.org/2001/XMLSchema-instance" xsi:noNamespaceSchemaLocation="http://sumo.dlr.de/xsd/net_file.xsd">

    <location netOffset="0.00,0.00" convBoundary="311424.00,2773219.37,313945.03,2775798.58" origBoundary="55.130367,25.062975,55.155251,25.086368" projParameter="+proj=utm +zone=40 +ellps=WGS84 +datum=WGS84 +units=m +no_defs"/>

    <type id="highway.motorway" priority="14" numLanes="2" speed="39.44" allow="private emergency authority army vip passenger hov taxi bus coach delivery truck trailer motorcycle evehicle custom1 custom2" oneway="1"/>
    <type id="highway.motorway_link" priority="9" numLanes="1" speed="22.22" allow="private emergency authority army vip passenger hov taxi bus coach delivery truck trailer motorcycle evehicle custom1 custom2" oneway="1"/>
    <type id="highway.primary" priority="12" numLanes="2" speed="27.78" disallow="tram rail_urban rail rail_electric rail_fast ship container cable_car subway aircraft wheelchair scooter drone" oneway="0"/>
    <type id="highway.primary_link" priority="7" numLanes="1" speed="22.22" disallow="tram rail_urban rail rail_electric rail_fast ship container cable_car subway aircraft wheelchair scooter drone" oneway="0"/>
    <type id="highway.residential" priority="3" numLanes="1" speed="13.89" disallow="tram rail_urban rail rail_electric rail_fast ship container cable_car subway aircraft wheelchair scooter drone" oneway="0"/>
    <type id="highway.secondary" priority="11" numLanes="1" speed="27.78" disallow="tram rail_urban rail rail_electric rail_fast ship container cable_car subway aircraft wheelchair scooter drone" oneway="0"/>
    <type id="highway.secondary_link" priority="6" numLanes="1" speed="22.22" disallow="tram rail_urban rail rail_electric rail_fast ship container cable_car subway aircraft wheelchair scooter drone" oneway="0"/>
    <type id="highway.service" priority="1" numLanes="1" speed="5.56" allow="pedestrian delivery bicycle" oneway="0"/>

    <edge id=":10009253313_0" function="internal">
        <lane id=":10009253313_0_0" index="0" allow="pedestrian delivery bicycle" speed="5.21" length="5.20" shape="312736.27,2775005.22 312735.15,2775004.45 312734.02,2775004.24 312732.85,2775004.57 312731.66,2775005.45"/>
    </edge>
    <edge id=":10009253313_1" function="internal">
        <lane id=":10009253313_1_0" index="0" disallow="tram rail_urban rail rail_electric rail_fast ship container cable_car subway aircraft wheelchair scooter drone" speed="13.89" length="9.41" shape="312736.27,2775005.22 312729.43,2774998.76"/>
    </edge>
    <edge id=":10009253313_2" function="internal">
        <lane id=":10009253313_2_0" index="0" disallow="tram rail_urban rail rail_electric rail_fast ship container cable_car subway aircraft wheelchair scooter drone" speed="13.89" length="9.41" shape="312731.62,2774996.43 312738.46,2775002.89"/>
    </edge>
    <edge id=":10009253313_3" function="internal">
        <lane id=":10009253313_3_0" index="0" allow="pedestrian delivery bicycle" speed="6.82" length="3.31" shape="312731.62,2774996.43 312733.41,2774998.68 312733.52,2774999.10"/>
    </edge>
    <edge id=":10009253313_6" function="internal">
        <lane id=":10009253313_6_0" index="0" allow="pedestrian delivery bicycle" speed="6.82" length="7.10" shape="312733.52,2774999.10 312734.01,2775000.93 312733.43,2775003.19 312731.66,2775005.45"/>
    </edge>
    <edge id=":10009253313_4" function="internal">
        <lane id=":10009253313_4_0" index="0" allow="pedestrian delivery bicycle" speed="4.99" length="5.06" shape="312729.44,2775003.14 312730.30,2775002.04 312730.59,2775000.95 312730.29,2774999.85 312729.43,2774998.76"/>
    </edge>
    <edge id=":10009253313_5" function="internal">
        <lane id=":10009253313_5_0" index="0" allow="pedestrian delivery bicycle" speed="6.99" length="10.18" shape="312729.44,2775003.14 312731.74,2775001.47 312734.00,2775000.87 312736.25,2775001.34 312738.46,2775002.89"/>
    </edge>
    <edge id=":10009325421_0" function="internal">
        <lane id=":10009325421_0_0" index="0" disallow="pedestrian tram rail_urban rail rail_electric rail_fast ship container cable_car subway aircraft wheelchair scooter drone" speed="5.69" length="5.87" shape="312743.63,2774876.21 312741.83,2774874.80 312740.38,2774873.92 312739.30,2774873.59 312738.57,2774873.79"/>
    </edge>
    <edge id=":10009325421_1" function="internal">
        <lane id=":10009325421_1_0" index="0" disallow="pedestrian tram rail_urban rail rail_electric rail_fast ship container cable_car subway aircraft wheelchair scooter drone" speed="10.91" length="12.88" shape="312743.63,2774876.21 312740.29,2774873.15 312737.91,2774870.45 312736.48,2774868.12 312736.03,2774866.16"/>
    </edge>
    <edge id=":10009325421_2" function="internal">
        <lane id=":10009325421_2_0" index="0" disallow="tram rail_urban rail rail_electric rail_fast ship container cable_car subway aircraft wheelchair scooter drone" speed="13.89" length="4.84" shape="312742.18,2774870.46 312738.57,2774873.79"/>
        <lane id=":10009325421_2_1" index="1" disallow="tram rail_urban rail rail_electric rail_fast ship container cable_car subway aircraft wheelchair scooter drone" speed="13.89" length="4.84" shape="312739.99,2774868.13 312736.48,2774871.37"/>
    </edge>
    <edge id=":10009325421_4" function="internal">
        <lane id=":10009325421_4_0" index="0" disallow="pedestrian tram rail_urban rail rail_electric rail_fast ship container cable_car subway aircraft wheelchair scooter drone" speed="4.81" length="7.06" shape="312739.99,2774868.13 312738.23,2774869.43 312736.98,2774869.54 312736.25,2774868.45 312736.03,2774866.16"/>
    </edge>
    <edge id=":10009325430_0" function="internal">
        <lane id=":10009325430_0_0" index="0" disallow="tram rail_urban rail rail_electric rail_fast ship container cable_car subway aircraft wheelchair scooter drone" speed="16.67" length="9.61" shape="312801.75,2774948.84 312799.80,2774946.64 312798.83,2774944.85 312798.06,2774942.90 312796.74,2774940.22"/>
        <lane id=":10009325430_0_1" index="1" disallow="tram rail_urban rail rail_electric rail_fast ship container cable_car subway aircraft wheelchair scooter drone" speed="16.67" length="9.61" shape="312803.97,2774946.53 312802.21,2774944.52 312801.36,2774942.88 312800.70,2774941.08 312799.52,2774938.63"/>
    </edge>
    <edge id=":10009325430_2" function="internal">
        <lane id=":10009325430_2_0" index="0" disallow="pedestrian tram rail_urban rail rail_electric rail_fast ship container cable_car subway aircraft wheelchair scooter drone" speed="15.59" length="7.85" shape="312806.19,2774944.23 312804.66,2774942.53 312803.91,2774941.14 312803.42,2774939.57 312802.68,2774937.34"/>
    </edge>
    <edge id=":10016013065_0" function="internal">
        <lane id=":10016013065_0_0" index="0" allow="pedestrian delivery bicycle" speed="4.98" length="5.07" shape="312617.10,2774894.42 312615.98,2774893.57 312614.88,2774893.30 312613.79,2774893.61 312612.71,2774894.50"/>
    </edge>
    <edge id=":10016013065_1" function="internal">
        <lane id=":10016013065_1_0" index="0" disallow="tram rail_urban rail rail_electric rail_fast ship container cable_car subway aircraft wheelchair scooter drone" speed="13.89" length="9.41" shape="312617.10,2774894.42 312610.50,2774887.71"/>
    </edge>
    <edge id=":10016013065_2" function="internal">
        <lane id=":10016013065_2_0" index="0" disallow="tram rail_urban rail rail_electric rail_fast ship container cable_car subway aircraft wheelchair scooter drone" speed="13.89" length="9.41" shape="312612.79,2774885.47 312619.38,2774892.18"/>
    </edge>
    <edge id=":10016013065_3" function="internal">
        <lane id=":10016013065_3_0" index="0" allow="pedestrian delivery bicycle" speed="7.00" length="3.16" shape="312612.79,2774885.47 312614.37,2774887.65 312614.48,2774888.10"/>
    </edge>
    <edge id=":10016013065_6" function="internal">
        <lane id=":10016013065_6_0" index="0" allow="pedestrian delivery bicycle" speed="7.00" length="7.02" shape="312614.48,2774888.10 312614.89,2774889.88 312614.33,2774892.17 312612.71,2774894.50"/>
    </edge>
    <edge id=":10016013065_4" function="internal">
        <lane id=":10016013065_4_0" index="0" allow="pedestrian delivery bicycle" speed="5.22" length="5.22" shape="312610.35,2774892.34 312611.21,2774891.12 312611.52,2774889.94 312611.29,2774888.80 312610.50,2774887.71"/>
    </edge>
    <edge id=":10016013065_5" function="internal">
        <lane id=":10016013065_5_0" index="0" allow="pedestrian delivery bicycle" speed="6.82" length="10.43" shape="312610.35,2774892.34 312612.57,2774890.51 312614.82,2774889.88 312617.09,2774890.43 312619.38,2774892.18"/>
    </edge>
    <edge id=":10016013074_0" function="internal">
        <lane id=":10016013074_0_0" index="0" allow="pedestrian delivery bicycle" speed="5.56" length="5.87" shape="312608.72,2774898.88 312607.64,2774900.21 312607.12,2774901.29 312606.93,2774902.50 312606.89,2774904.24"/>
    </edge>
    <edge id=":10016013074_1" function="internal">
        <lane id=":10016013074_1_0" index="0" allow="pedestrian delivery bicycle" speed="5.56" length="5.14" shape="312601.61,2774897.39 312603.01,2774897.86 312604.26,2774897.90 312605.37,2774897.53 312606.34,2774896.75"/>
    </edge>
    <edge id=":10016013074_2" function="internal">
        <lane id=":10016013074_2_0" index="0" allow="pedestrian delivery bicycle" speed="5.56" length="9.18" shape="312601.61,2774897.39 312603.96,2774898.74 312605.62,2774900.33 312606.60,2774902.16 312606.89,2774904.24"/>
    </edge>
    <edge id=":10016013075_0" function="internal">
        <lane id=":10016013075_0_0" index="0" allow="pedestrian delivery bicycle" speed="5.56" length="5.16" shape="312593.15,2774895.10 312594.25,2774896.11 312595.38,2774896.74 312596.53,2774897.00 312597.71,2774896.88"/>
    </edge>
    <edge id=":10016013075_1" function="internal">
        <lane id=":10016013075_1_0" index="0" allow="pedestrian delivery bicycle" speed="5.56" length="5.66" shape="312592.75,2774899.47 312594.08,2774898.44 312595.05,2774897.80 312596.11,2774897.34 312597.71,2774896.88"/>
    </edge>
    <edge id=":10016013095_0" function="internal">
        <lane id=":10016013095_0_0" index="0" allow="pedestrian delivery bicycle" speed="5.56" length="4.79" shape="312606.43,2774907.56 312606.16,2774908.90 312606.21,2774910.10 312606.56,2774911.14 312607.24,2774912.04"/>
    </edge>
    <edge id=":10016013095_1" function="internal">
        <lane id=":10016013095_1_0" index="0" allow="pedestrian delivery bicycle" speed="5.56" length="5.70" shape="312606.43,2774907.56 312605.84,2774909.10 312605.17,2774910.03 312604.23,2774910.78 312602.87,2774911.80"/>
    </edge>
    <edge id=":10016051419_0" function="internal">
        <lane id=":10016051419_0_0" index="0" allow="pedestrian delivery bicycle" speed="5.56" length="6.21" shape="312745.76,2774964.58 312741.30,2774968.89"/>
    </edge>
    <edge id=":10016051419_1" function="internal">
        <lane id=":10016051419_1_0" index="0" allow="pedestrian delivery bicycle" speed="5.14" length="5.06" shape="312739.06,2774962.20 312740.20,2774963.03 312741.33,2774963.31 312742.44,2774963.06 312743.54,2774962.28"/>
    </edge>
    <edge id=":10016051419_2" function="internal">
        <lane id=":10016051419_2_0" index="0" allow="pedestrian delivery bicycle" speed="5.56" length="7.88" shape="312739.06,2774962.20 312740.93,2774964.27 312741.93,2774966.07 312742.05,2774967.61 312741.30,2774968.89"/>
    </edge>
    <edge id=":10016051419_3" function="internal">
        <lane id=":10016051419_3_0" index="0" allow="pedestrian delivery bicycle" speed="5.56" length="6.20" shape="312739.08,2774966.59 312743.54,2774962.28"/>
    </edge>
    <edge id=":10018069201_0" function="internal">
        <lane id=":10018069201_0_0" index="0" disallow="tram rail_urban rail rail_electric rail_fast ship container cable_car subway aircraft wheelchair scooter drone" speed="16.67" length="7.41" shape="312470.79,2774580.18 312466.10,2774574.41"/>
        <lane id=":10018069201_0_1" index="1" disallow="tram rail_urban rail rail_electric rail_fast ship container cable_car subway aircraft wheelchair scooter drone" speed="16.67" length="7.41" shape="312473.27,2774578.16 312468.61,2774572.43"/>
    </edge>
    <edge id=":10018069201_2" function="internal">
        <lane id=":10018069201_2_0" index="0" allow="pedestrian delivery bicycle" speed="8.39" length="7.21" shape="312466.80,2774581.40 312467.11,2774579.13 312467.10,2774577.20 312466.77,2774575.63 312466.10,2774574.41"/>
    </edge>
    <edge id=":10018069205_0" function="internal">
        <lane id=":10018069205_0_0" index="0" allow="pedestrian delivery bicycle" speed="8.46" length="7.29" shape="312479.74,2774591.03 312478.70,2774590.14 312477.22,2774589.49 312475.32,2774589.07 312472.97,2774588.89"/>
    </edge>
    <edge id=":10018069205_1" function="internal">
        <lane id=":10018069205_1_0" index="0" disallow="tram rail_urban rail rail_electric rail_fast ship container cable_car subway aircraft wheelchair scooter drone" speed="16.67" length="7.53" shape="312479.74,2774591.03 312474.94,2774585.24"/>
        <lane id=":10018069205_1_1" index="1" disallow="tram rail_urban rail rail_electric rail_fast ship container cable_car subway aircraft wheelchair scooter drone" speed="16.67" length="7.53" shape="312482.21,2774588.99 312477.41,2774583.20"/>
    </edge>
    <edge id=":10018069206_0" function="internal">
        <lane id=":10018069206_0_0" index="0" allow="pedestrian delivery bicycle" speed="5.56" length="4.86" shape="312470.09,2774588.83 312468.68,2774588.87 312467.73,2774589.13 312466.84,2774589.64 312465.64,2774590.44"/>
    </edge>
    <edge id=":10018069206_1" function="internal">
        <lane id=":10018069206_1_0" index="0" allow="pedestrian delivery bicycle" speed="5.48" length="6.90" shape="312470.09,2774588.83 312468.08,2774588.52 312466.75,2774587.70 312466.12,2774586.38 312466.18,2774584.54"/>
    </edge>
    <edge id=":10018069206_2" function="internal">
        <lane id=":10018069206_2_0" index="0" allow="pedestrian delivery bicycle" speed="5.56" length="4.05" shape="312463.90,2774587.76 312464.75,2774587.10 312465.42,2774586.34 312465.89,2774585.49 312466.18,2774584.54"/>
    </edge>
    <edge id=":10021612573_0" function="internal">
        <lane id=":10021612573_0_0" index="0" allow="pedestrian delivery bicycle" speed="5.56" length="8.74" shape="312033.23,2774859.93 312030.43,2774851.65"/>
    </edge>
    <edge id=":10021612573_1" function="internal">
        <lane id=":10021612573_1_0" index="0" allow="pedestrian delivery bicycle" speed="5.56" length="8.85" shape="312029.15,2774860.08 312030.20,2774857.66 312030.87,2774855.90 312031.00,2774854.12 312030.43,2774851.65"/>
    </edge>
    <edge id=":10021612585_0" function="internal">
        <lane id=":10021612585_0_0" index="0" allow="pedestrian delivery bicycle" speed="5.56" length="7.49" shape="312040.57,2774881.34 312039.92,2774880.16 312038.74,2774879.00 312037.06,2774877.86 312034.87,2774876.73"/>
    </edge>
    <edge id=":10021612585_1" function="internal">
        <lane id=":10021612585_1_0" index="0" allow="pedestrian delivery bicycle" speed="5.56" length="7.72" shape="312040.57,2774881.34 312038.07,2774874.03"/>
    </edge>
    <edge id=":10021612608_0" function="internal">
        <lane id=":10021612608_0_0" index="0" allow="pedestrian delivery bicycle" speed="5.26" length="5.29" shape="312126.95,2775227.94 312125.91,2775227.08 312124.78,2775226.78 312123.56,2775227.02 312122.25,2775227.82"/>
    </edge>
    <edge id=":10021612608_1" function="internal">
        <lane id=":10021612608_1_0" index="0" disallow="tram rail_urban rail rail_electric rail_fast ship container cable_car subway aircraft wheelchair scooter drone" speed="11.11" length="9.45" shape="312126.95,2775227.94 312120.61,2775220.93"/>
    </edge>
    <edge id=":10021612608_2" function="internal">
        <lane id=":10021612608_2_0" index="0" allow="pedestrian delivery bicycle" speed="4.96" length="5.10" shape="312120.26,2775225.30 312121.24,2775224.28 312121.62,2775223.21 312121.41,2775222.09 312120.61,2775220.93"/>
    </edge>
    <edge id=":10036203996_0" function="internal">
        <lane id=":10036203996_0_0" index="0" allow="pedestrian delivery bicycle" speed="4.93" length="5.13" shape="312851.37,2774700.65 312850.37,2774701.67 312849.98,2774702.74 312850.20,2774703.86 312851.03,2774705.02"/>
        <lane id=":10036203996_0_1" index="1" allow="pedestrian delivery bicycle" speed="5.98" length="8.07" shape="312851.37,2774700.65 312849.27,2774702.54 312848.13,2774704.27 312847.94,2774705.83 312848.72,2774707.23"/>
    </edge>
    <edge id=":10036203996_2" function="internal">
        <lane id=":10036203996_2_0" index="0" allow="pedestrian delivery bicycle" speed="5.42" length="5.46" shape="312844.51,2774698.20 312845.58,2774698.99 312846.75,2774699.24 312848.03,2774698.94 312849.42,2774698.11"/>
    </edge>
    <edge id=":10036203996_3" function="internal">
        <lane id=":10036203996_3_0" index="0" disallow="tram rail_urban rail rail_electric rail_fast ship container cable_car subway aircraft wheelchair scooter drone" speed="16.67" length="9.43" shape="312844.51,2774698.20 312851.03,2774705.02"/>
        <lane id=":10036203996_3_1" index="1" disallow="tram rail_urban rail rail_electric rail_fast ship container cable_car subway aircraft wheelchair scooter drone" speed="16.67" length="9.43" shape="312842.20,2774700.41 312848.72,2774707.23"/>
        <lane id=":10036203996_3_2" index="2" disallow="tram rail_urban rail rail_electric rail_fast ship container cable_car subway aircraft wheelchair scooter drone" speed="16.67" length="9.43" shape="312839.89,2774702.62 312846.40,2774709.44"/>
        <lane id=":10036203996_3_3" index="3" disallow="tram rail_urban rail rail_electric rail_fast ship container cable_car subway aircraft wheelchair scooter drone" speed="16.67" length="9.43" shape="312837.57,2774704.83 312844.09,2774711.65"/>
    </edge>
    <edge id=":100959730#6-AddedOffRampNode_0" function="internal">
        <lane id=":100959730#6-AddedOffRampNode_0_0" index="0" disallow="tram rail_urban rail rail_electric rail_fast ship container cable_car subway aircraft wheelchair scooter drone" speed="13.89" length="8.27" shape="312500.53,2775083.14 312499.04,2775085.16 312498.64,2775087.01 312498.23,2775088.86 312496.74,2775090.88"/>
        <lane id=":100959730#6-AddedOffRampNode_0_1" index="1" disallow="tram rail_urban rail rail_electric rail_fast ship container cable_car subway aircraft wheelchair scooter drone" speed="13.89" length="8.27" shape="312500.53,2775083.14 312494.60,2775088.51"/>
        <lane id=":100959730#6-AddedOffRampNode_0_2" index="2" disallow="tram rail_urban rail rail_electric rail_fast ship container cable_car subway aircraft wheelchair scooter drone" speed="13.89" length="8.27" shape="312498.38,2775080.76 312492.45,2775086.13"/>
    </edge>
    <edge id=":1013735979_0" function="internal">
        <lane id=":1013735979_0_0" index="0" disallow="tram rail_urban rail rail_electric rail_fast ship container cable_car subway aircraft wheelchair scooter drone" speed="16.67" length="14.71" shape="313048.81,2775169.76 313037.87,2775159.93"/>
        <lane id=":1013735979_0_1" index="1" disallow="tram rail_urban rail rail_electric rail_fast ship container cable_car subway aircraft wheelchair scooter drone" speed="16.67" length="14.71" shape="313050.95,2775167.38 313040.01,2775157.55"/>
    </edge>
    <edge id=":1013735979_2" function="internal">
        <lane id=":1013735979_2_0" index="0" disallow="tram rail_urban rail rail_electric rail_fast ship container cable_car subway aircraft wheelchair scooter drone" speed="6.37" length="9.04" shape="313050.95,2775167.38 313049.34,2775165.46 313048.78,2775163.52 313049.26,2775161.56 313050.79,2775159.58"/>
    </edge>
    <edge id=":1013735979_3" function="internal">
        <lane id=":1013735979_3_0" index="0" disallow="tram rail_urban rail rail_electric rail_fast ship container cable_car subway aircraft wheelchair scooter drone" speed="6.45" length="9.03" shape="313038.18,2775167.79 313039.62,2775165.77 313040.05,2775163.78 313039.46,2775161.83 313037.87,2775159.93"/>
        <lane id=":1013735979_3_1" index="1" disallow="tram rail_urban rail rail_electric rail_fast ship container cable_car subway aircraft wheelchair scooter drone" speed="7.95" length="14.30" shape="313040.50,2775170.00 313042.78,2775166.79 313043.45,2775163.65 313042.53,2775160.57 313040.01,2775157.55"/>
    </edge>
    <edge id=":1013735979_5" function="internal">
        <lane id=":1013735979_5_0" index="0" disallow="tram rail_urban rail rail_electric rail_fast ship container cable_car subway aircraft wheelchair scooter drone" speed="8.33" length="14.90" shape="313040.50,2775170.00 313043.19,2775166.45 313044.45,2775163.57 313045.75,2775160.72 313048.55,2775157.29"/>
        <lane id=":1013735979_5_1" index="1" disallow="tram rail_urban rail rail_electric rail_fast ship container cable_car subway aircraft wheelchair scooter drone" speed="8.33" length="14.90" shape="313040.50,2775170.00 313050.79,2775159.58"/>
    </edge>
    <edge id=":1013753632_0" function="internal">
        <lane id=":1013753632_0_0" index="0" allow="pedestrian delivery bicycle" speed="11.12" length="8.64" shape="312539.61,2774669.48 312539.49,2774666.90 312539.47,2774665.05 312539.02,2774663.37 312537.65,2774661.31"/>
    </edge>
    <edge id=":1013753632_1" function="internal">
        <lane id=":1013753632_1_0" index="0" disallow="tram rail_urban rail rail_electric rail_fast ship container cable_car subway aircraft wheelchair scooter drone" speed="16.67" length="8.65" shape="312543.23,2774667.94 312537.65,2774661.31"/>
        <lane id=":1013753632_1_1" index="1" disallow="tram rail_urban rail rail_electric rail_fast ship container cable_car subway aircraft wheelchair scooter drone" speed="16.67" length="8.65" shape="312545.68,2774665.89 312540.12,2774659.28"/>
    </edge>
    <edge id=":10857647009_0" function="internal">
        <lane id=":10857647009_0_0" index="0" allow="pedestrian delivery bicycle" speed="4.92" length="4.71" shape="311789.66,2774944.17 311788.74,2774945.18 311788.34,2774946.20 311788.46,2774947.23 311789.10,2774948.26"/>
    </edge>
    <edge id=":10857647009_1" function="internal">
        <lane id=":10857647009_1_0" index="0" allow="pedestrian delivery bicycle" speed="5.56" length="6.20" shape="311782.86,2774945.79 311787.56,2774941.74"/>
    </edge>
    <edge id=":10857647009_2" function="internal">
        <lane id=":10857647009_2_0" index="0" allow="pedestrian delivery bicycle" speed="3.78" length="2.35" shape="311784.94,2774948.23 311785.37,2774948.09 311785.61,2774948.48 311785.83,2774949.14 311786.19,2774949.80"/>
    </edge>
    <edge id=":10857647010_0" function="internal">
        <lane id=":10857647010_0_0" index="0" allow="pedestrian delivery bicycle" speed="3.90" length="2.57" shape="311757.59,2774979.53 311756.99,2774979.90 311756.42,2774980.00 311755.87,2774979.82 311755.34,2774979.35"/>
        <lane id=":10857647010_0_1" index="1" allow="pedestrian delivery bicycle" speed="3.90" length="2.57" shape="311755.51,2774977.09 311756.11,2774976.72 311756.68,2774976.62 311757.23,2774976.80 311757.76,2774977.27"/>
    </edge>
    <edge id=":11187486749_0" function="internal">
        <lane id=":11187486749_0_0" index="0" allow="pedestrian delivery bicycle" speed="5.56" length="4.34" shape="312792.71,2775020.01 312795.52,2775016.70"/>
    </edge>
    <edge id=":11187486749_1" function="internal">
        <lane id=":11187486749_1_0" index="0" allow="pedestrian delivery bicycle" speed="5.56" length="4.71" shape="312786.42,2775019.31 312787.39,2775019.27 312788.43,2775018.97 312789.52,2775018.39 312790.67,2775017.55"/>
    </edge>
    <edge id=":11187486749_2" function="internal">
        <lane id=":11187486749_2_0" index="0" allow="pedestrian delivery bicycle" speed="5.56" length="9.47" shape="312786.42,2775019.31 312795.52,2775016.70"/>
    </edge>
    <edge id=":11327311245_0" function="internal">
        <lane id=":11327311245_0_0" index="0" allow="pedestrian delivery bicycle" speed="5.06" length="5.02" shape="312559.47,2774722.21 312558.47,2774721.28 312557.41,2774720.89 312556.28,2774721.05 312555.09,2774721.75"/>
    </edge>
    <edge id=":11327311245_1" function="internal">
        <lane id=":11327311245_1_0" index="0" allow="pedestrian delivery bicycle" speed="5.56" length="9.40" shape="312559.47,2774722.21 312553.59,2774714.88"/>
    </edge>
    <edge id=":11327311245_2" function="internal">
        <lane id=":11327311245_2_0" index="0" allow="pedestrian delivery bicycle" speed="5.56" length="9.40" shape="312556.08,2774712.88 312561.97,2774720.21"/>
    </edge>
    <edge id=":11327311245_3" function="internal">
        <lane id=":11327311245_3_0" index="0" allow="pedestrian delivery bicycle" speed="5.56" length="10.19" shape="312556.08,2774712.88 312557.51,2774715.28 312557.82,2774717.56 312557.01,2774719.72 312555.09,2774721.75"/>
    </edge>
    <edge id=":11327311245_4" function="internal">
        <lane id=":11327311245_4_0" index="0" allow="pedestrian delivery bicycle" speed="5.03" length="5.01" shape="312553.10,2774719.24 312554.04,2774718.24 312554.44,2774717.18 312554.29,2774716.06 312553.59,2774714.88"/>
    </edge>
    <edge id=":11327311245_5" function="internal">
        <lane id=":11327311245_5_0" index="0" allow="pedestrian delivery bicycle" speed="5.56" length="10.16" shape="312553.10,2774719.24 312555.51,2774717.83 312557.79,2774717.52 312559.94,2774718.31 312561.97,2774720.21"/>
    </edge>
    <edge id=":1150673349_0" function="internal">
        <lane id=":1150673349_0_0" index="0" disallow="tram rail_urban rail rail_electric rail_fast ship container cable_car subway aircraft wheelchair scooter drone" speed="12.50" length="25.41" shape="312716.19,2775668.82 312714.21,2775672.71 312711.37,2775677.60 312708.60,2775683.95 312706.87,2775692.24"/>
    </edge>
    <edge id=":1150673349_1" function="internal">
        <lane id=":1150673349_1_0" index="0" disallow="tram rail_urban rail rail_electric rail_fast ship container cable_car subway aircraft wheelchair scooter drone" speed="16.67" length="25.97" shape="312712.86,2775667.45 312710.75,2775674.75 312709.13,2775679.72 312707.87,2775684.75 312706.87,2775692.24"/>
        <lane id=":1150673349_1_1" index="1" disallow="tram rail_urban rail rail_electric rail_fast ship container cable_car subway aircraft wheelchair scooter drone" speed="16.67" length="25.97" shape="312709.74,2775666.75 312707.60,2775674.16 312705.97,2775679.21 312704.70,2775684.32 312703.68,2775691.93"/>
        <lane id=":1150673349_1_2" index="2" disallow="tram rail_urban rail rail_electric rail_fast ship container cable_car subway aircraft wheelchair scooter drone" speed="16.67" length="25.97" shape="312706.61,2775666.04 312704.45,2775673.57 312702.80,2775678.70 312701.52,2775683.89 312700.50,2775691.62"/>
    </edge>
    <edge id=":11542199820_0" function="internal">
        <lane id=":11542199820_0_0" index="0" allow="pedestrian delivery bicycle" speed="5.56" length="7.77" shape="312823.03,2775452.00 312821.25,2775450.83 312820.27,2775449.37 312820.10,2775447.62 312820.74,2775445.59"/>
    </edge>
    <edge id=":11542199820_1" function="internal">
        <lane id=":11542199820_1_0" index="0" allow="pedestrian delivery bicycle" speed="3.90" length="2.59" shape="312823.63,2775446.96 312823.42,2775447.64 312823.47,2775448.22 312823.80,2775448.71 312824.39,2775449.10"/>
    </edge>
    <edge id=":11542199822_0" function="internal">
        <lane id=":11542199822_0_0" index="0" allow="pedestrian delivery bicycle" speed="5.56" length="5.51" shape="312843.82,2775445.91 312843.01,2775447.33 312842.53,2775448.34 312842.10,2775449.38 312841.44,2775450.88"/>
    </edge>
    <edge id=":11542199822_1" function="internal">
        <lane id=":11542199822_1_0" index="0" allow="pedestrian delivery bicycle" speed="5.56" length="7.33" shape="312843.82,2775445.91 312842.92,2775446.68 312841.49,2775446.85 312839.52,2775446.44 312837.02,2775445.43"/>
    </edge>
    <edge id=":11542199822_2" function="internal">
        <lane id=":11542199822_2_0" index="0" allow="pedestrian delivery bicycle" speed="4.34" length="3.20" shape="312838.38,2775442.54 312841.06,2775444.28"/>
    </edge>
    <edge id=":11542199822_3" function="internal">
        <lane id=":11542199822_3_0" index="0" allow="pedestrian delivery bicycle" speed="5.56" length="10.10" shape="312838.38,2775442.54 312840.69,2775444.06 312841.97,2775445.95 312842.22,2775448.22 312841.44,2775450.88"/>
    </edge>