<?xml version="1.0" encoding="UTF-8"?>

<!-- generated on 2026-04-05 14:01:18.030332 by Eclipse SUMO randomTrips.py v0.0.0
<configuration>
    <net-file value="/Users/karimboubouh/Workspace/R/sumo/scenarios/dubai_marina/network.net.xml"/>
    <output-trip-file value="/Users/karimboubouh/Workspace/R/sumo/scenarios/dubai_marina/trips.xml"/>
    <route-file value="/Users/karimboubouh/Workspace/R/sumo/scenarios/dubai_marina/routes.rou.xml"/>
    <end value="50.0"/>
    <period value="1.0"/>
</configuration>
-->

<!-- generated on 2026-04-05T14:01:18.026536+04:00 by Eclipse SUMO duarouter 1.26.0
<duarouterConfiguration xmlns:xsi="http://www.w3.org/2001/XMLSchema-instance" xsi:noNamespaceSchemaLocation="http://sumo.dlr.de/xsd/duarouterConfiguration.xsd">

    <input>
        <net-file value="/Users/karimboubouh/Workspace/R/sumo/scenarios/dubai_marina/network.net.xml"/>
        <route-files value="/Users/karimboubouh/Workspace/R/sumo/scenarios/dubai_marina/trips.xml"/>
    </input>

    <output>
        <output-file value="/Users/karimboubouh/Workspace/R/sumo/scenarios/dubai_marina/routes.rou.xml"/>
        <alternatives-output value="NUL"/>
    </output>

    <time>
        <begin value="0.0"/>
        <end value="50.0"/>
    </time>

    <report>
        <no-warnings value="true"/>
        <ignore-errors value="true"/>
        <no-step-log value="true"/>
    </report>

</duarouterConfiguration>
-->

<routes xmlns:xsi="http://www.w3.org/2001/XMLSchema-instance" xsi:noNamespaceSchemaLocation="http://sumo.dlr.de/xsd/routes_file.xsd">
    <vehicle id="0" depart="0.00">
        <route edges="481656447#0 195917286#1 178960764 871795247#2 871795247#3 871795247#7 871795247#9 871795247#10 871795247#11 871795247#12 871795247#13 871795247#14 871795247#15 196018202 499978429#1 -26633207#1 -26633207#0 47518258#4 47518258#0 47518258#1 47518258#2 47518258#3 26633207#0 26633207#1 282467575#0"/>
    </vehicle>
    <vehicle id="1" depart="1.00">
        <route edges="871795247#12 871795247#13 871795247#14 871795247#15 871795247#16 499978425#0 499978425#1 499978425#2 499978425#3 499978425#4 499978425#5 499978425#6 499978425#6-AddedOffRampEdge 100959747 195917282#2-AddedOnRampEdge 195917282#2 195917285#0"/>
    </vehicle>
    <vehicle id="2" depart="2.00">
        <route edges="26633205 51688098#1 51688098#2 51688098#3 51688137#0 51688137#1 51688137#2 217530739#1 217530739#3 217530739#6 217530739#7 217530739#8 217530739#8-AddedOffRampEdge 217530739#9 217530739#10 100959746 100959730#4 100959730#6 100959730#6-AddedOffRampEdge 26633202#1 871795247#0 871795247#2 871795247#3 871795247#7 871795247#9 871795247#10 871795247#11 871795247#12 871795247#13 871795247#14 871795247#15 871795247#16"/>
    </vehicle>
    <vehicle id="3" depart="3.00">
        <route edges="196018202 499978429#1 -26633207#1 -26633207#0 47518258#4 47518258#0 47518258#1 47518258#2 47518258#3 26633207#0 26633207#1 282467575#0 282467575#2 282467580#0"/>
    </vehicle>
    <vehicle id="4" depart="4.00">
        <route edges="499969907#0 481656445#2 481656445#4 481656445#5 481656445#6 481656445#7 871795247#0 871795247#2 871795247#3 871795247#7 871795247#9 871795247#10 871795247#11 871795247#12 871795247#13 871795247#14 871795247#15 196018202 499978429#1 -26633207#1 -26633207#0"/>
    </vehicle>
    <vehicle id="5" depart="5.00">
        <route edges="-50339452#0 100959730#6 100959730#6-AddedOffRampEdge 26633202#1 195917286#1 178960761#0 178960761#1 993413014 195958213#1 195958213#2 195958213#3 195958213#4 993375063 -178960761#1 -178960761#0 100959722#0 195917282#0 195917282#2-AddedOnRampEdge 195917282#2 195917285#0 195917285#1 195917280 1088155990"/>
    </vehicle>
    <vehicle id="6" depart="6.00">
        <route edges="1019645210 871795247#14 871795247#15 871795247#16 499978425#0 499978425#1 499978425#2 499978425#3"/>
    </vehicle>
    <vehicle id="7" depart="7.00">
        <route edges="937276227#0 217530739#16 217530739#18 195917288 -195917279 1088155992 195917278#3 195917281 -195917285#1 -195917285#0 100959743#2 100959743#3 648344035#6 100959730#0 100959730#1 100959730#2 100959730#4 100959730#6 100959730#6-AddedOffRampEdge 26633202#1 481656449#0"/>
    </vehicle>
    <vehicle id="8" depart="8.00">
        <route edges="195917279 499917458 217530739#20 217530739#21 217530739#22 217530739#23 217530739#24 217530739#25 499938673#0 498361966 499978425#1 499978425#2 499978425#3 499978425#4 499978425#5 499978425#6 499978425#6-AddedOffRampEdge 481656447#0 195917286#1 178960761#0 178960761#1 993413014 195958213#1 195958213#2 195958213#3 195958212#0 195958212#1 195958212#2 1239705482#2 1239705482#4 1239705482#5"/>
    </vehicle>
    <vehicle id="9" depart="9.00">
        <route edges="648344035#0 648344035#0-AddedOffRampEdge 937276227#0 217530739#16 217530739#18 195917288 -195917279 1088155992 195917278#3 195917281"/>
    </vehicle>
    <vehicle id="10" depart="10.00">
        <route edges="481656449#2 196112459#0 196112459#1 196112459#4 196112459#5 196112459#6 196112459#7 196112459#8 57890791 51688137#1 51688137#2 217530739#1 217530739#3 217530739#6 217530739#7 217530739#8 217530739#8-AddedOffRampEdge 217530739#9 217530739#10 100959746 100959730#4 100959730#6 100959730#6-AddedOffRampEdge 26633202#1 871795247#0 871795247#2 871795247#3 871795247#7 871795247#9 871795247#10 871795247#11 871795247#12 871795247#13 871795247#14 871795247#15 871795247#16 196112453#0 196112453#1 196112453#2 196112453#3-AddedOnRampEdge 196112453#3"/>
    </vehicle>
    <vehicle id="11" depart="11.00">
        <route edges="708807184#4 708807184#5 708807184#6 47518258#0 47518258#1 47518258#2 47518258#3 26633207#0 26633207#1 282467575#0 282467575#2 499978425#0 499978425#1 499978425#2 499978425#3 499978425#4 499978425#5 499978425#6 499978425#6-AddedOffRampEdge 100959747 195917282#2-AddedOnRampEdge 195917282#2 100959743#2 100959743#3 217530739#15"/>
    </vehicle>
    <vehicle id="12" depart="12.00">
        <route edges="1094239631#1 47518258#3 26633207#0 26633207#1 282467575#0 282467575#2 499978425#0 499978425#1 499978425#2 499978425#3 499978425#4 499978425#5 499978425#6 499978425#6-AddedOffRampEdge 481656447#0 481656449#0 481656449#2 196112459#0 196112459#1 196112459#4 196112459#5 196112459#6 196112459#7 196112459#8 57890791 51688137#1 51688137#2 217530739#1 217530739#3 217530739#6 217530739#7 217530739#8 217530739#8-AddedOffRampEdge 1092921228#0"/>
    </vehicle>
    <vehicle id="13" depart="13.00">
        <route edges="430677058#2 430677060 499976502#9 499976502#10 499978429#0 499978429#1 -26633207#1 -26633207#0 47518258#4 47518258#0 47518258#1 47518258#2 -1094239631#1 47518271#0 47518271#1 47518271#2 698938758"/>
    </vehicle>
    <vehicle id="14" depart="14.00">
        <route edges="993413014 195958213#1 195958213#2 195958213#3 195958213#4 993375063 -178960761#1 -178960761#0 100959722#0 481656449#0 481656449#2 196112459#0 196112459#1 196112459#4 196112459#5 196112459#6 196112459#7 196112459#8 57890791 51688137#1 51688137#2 217530739#1 217530739#3 217530739#6 217530739#7 217530739#8 217530739#8-AddedOffRampEdge"/>
    </vehicle>
    <vehicle id="15" depart="15.00">
        <route edges="-50339452#2 -50339452#0 100959730#6 100959730#6-AddedOffRampEdge 26633202#1 871795247#0 871795247#2 871795247#3 871795247#7 871795247#9 871795247#10 871795247#11 871795247#12 871795247#13 871795247#14 871795247#15 196018202 499978429#1 -26633207#1 -26633207#0"/>
    </vehicle>
    <vehicle id="16" depart="16.00">
        <route edges="993375063 -178960761#1 -178960761#0 178960764 871795247#2 871795247#3 871795247#7 871795247#9 871795247#10 871795247#11 871795247#12 871795247#13 871795247#14 871795247#15 196018202 499978429#1 -26633207#1 -26633207#0 47518258#4 47518258#0 47518258#1 47518258#2 47518258#3 26633207#0"/>
    </vehicle>
    <vehicle id="17" depart="17.00">
        <route edges="499917458 217530739#20 217530739#21 217530739#22 217530739#23 217530739#24 217530739#25 499938673#0 498361966 499978425#1 499978425#2 499978425#3 499978425#4 499978425#5 499978425#6 499978425#6-AddedOffRampEdge 481656447#0 195917286#1 178960761#0 178960761#1 993413014 195958213#1 195958213#2 195958213#3 195958212#0 195958212#1 195958212#2 1239705482#2 1239705482#4 1239705482#5 708807184#0 708807184#1 708807184#2 279159305#0"/>
    </vehicle>
    <vehicle id="18" depart="18.00">
        <route edges="1094239631#1 47518258#3 26633207#0 26633207#1 282467575#0 282467575#2 499978425#0 499978425#1 499978425#2 499978425#3 499978425#4 499978425#5 499978425#6 499978425#6-AddedOffRampEdge 481656447#0 481656449#0"/>
    </vehicle>
    <vehicle id="19" depart="19.00">
        <route edges="-50339452#8 -50339452#6 -50339452#5 -50339452#4 -50339452#3 -50339452#2 -50339452#0 100959730#6 100959730#6-AddedOffRampEdge 100959721 481656449#2 196112459#0 196112459#1 196112459#4 196112459#5 196112459#6 196112459#7 196112459#8"/>
    </vehicle>
    <vehicle id="20" depart="20.00">
        <route edges="217530739#10 100959746 100959730#4 100959730#6 100959730#6-AddedOffRampEdge 26633202#1 871795247#0 871795247#2 871795247#3 871795247#7 871795247#9 871795247#10 871795247#11"/>
    </vehicle>
    <vehicle id="21" depart="21.00">
        <route edges="636923664#5 104783574#0 104783574#1 1087156867 808660935#1 808660935#2 808660933#0 808660933#1 808660933#2 808660933#3 195958213#2 195958213#3 195958212#0 195958212#1 195958212#2 1239705482#2 1239705482#4"/>
    </vehicle>
    <vehicle id="22" depart="22.00">
        <route edges="499978429#0 499978429#1 -26633207#1 -26633207#0 47518258#4 47518258#0 47518258#1 47518258#2 47518258#3 26633207#0 26633207#1 282467575#0 282467575#2 499978425#0 499978425#1 499978425#2 499978425#3 499978425#4 499978425#5 499978425#6 499978425#6-AddedOffRampEdge 481656447#0 195917286#1 178960761#0 178960761#1 993413014 195958213#1 195958213#2 195958213#3 195958212#0 195958212#1 195958212#2 1239705482#2 1239705482#4 1239705482#5 708807184#0 708807184#1 708807184#2 279159305#0"/>
    </vehicle>
    <vehicle id="23" depart="23.00">
        <route edges="-104783553 1039385963 1039385960#3 1039385964#0 1039385964#1 636923664#0 636923664#1 636923664#2 636923664#3 636923664#4 636923664#5 52032833#0 52032833#1 499969907#0 481656445#2 481656445#4 481656445#5 481656445#6 481656445#7 195917282#0 195917282#2-AddedOnRampEdge"/>
    </vehicle>
    <vehicle id="24" depart="24.00">
        <route edges="648344035#0 648344035#0-AddedOffRampEdge 648344035#2 648344035#6 100959730#0 100959730#1 100959730#2 100959730#4 100959730#6 100959730#6-AddedOffRampEdge 26633202#1 871795247#0 871795247#2 871795247#3 871795247#7 871795247#9 871795247#10"/>
    </vehicle>
    <vehicle id="25" depart="25.00">
        <route edges="-50339452#12 -50339452#9 -50339452#8 -50339452#6 -50339452#5 -50339452#4 -50339452#3 -50339452#2 -50339452#0 100959730#6 100959730#6-AddedOffRampEdge 26633202#1 195917286#1 178960761#0 178960761#1 993413014 195958213#1 195958213#2 195958213#3 195958213#4 993375063 -178960761#1 -178960761#0 100959722#0 195917282#0 195917282#2-AddedOnRampEdge 195917282#2 100959743#2 100959733 217530739#18 217530739#19 217530739#20 217530739#21 217530739#22 217530739#23"/>
    </vehicle>
    <vehicle id="26" depart="26.00">
        <route edges="-499956496 51688098#1 51688098#2 51688098#3 499956501 196112459#10 499978435#4"/>
    </vehicle>
    <vehicle id="27" depart="27.00">
        <route edges="499978429#1 -26633207#1 -26633207#0 47518258#4 47518258#0 47518258#1 47518258#2 47518258#3 26633207#0 26633207#1 282467575#0 282467575#2 499978425#0 499978425#1 499978425#2 499978425#3 499978425#4 499978425#5 499978425#6 499978425#6-AddedOffRampEdge 100959747 195917282#2-AddedOnRampEdge 195917282#2 100959743#2 100959743#3 648344035#6 100959730#0 100959730#1 100959730#2 100959730#4 100959730#6"/>
    </vehicle>
    <vehicle id="28" depart="28.00">
        <route edges="217530739#20 217530739#21 217530739#22 217530739#23 217530739#24 217530739#25 499938673#0 196018197#1 499978429#0 499978429#1 -26633207#1 -26633207#0 47518258#4 47518258#0 47518258#1 47518258#2 47518258#3 26633207#0 26633207#1 282467575#0 282467575#2"/>
    </vehicle>
    <vehicle id="29" depart="29.00">
        <route edges="26633207#0 26633207#1 282467575#0 282467575#2 499978425#0 499978425#1 499978425#2 499978425#3"/>
    </vehicle>
    <vehicle id="30" depart="30.00">
        <route edges="1087156866#0 1087156866#1 1039385960#1 1039385960#2 1039385960#3 1039385964#0 1039385964#1 636923664#0 636923664#1 636923664#2 636923664#3 636923664#4 636923664#5 52032833#0 52032833#1 499969907#0 481656445#2 481656445#4 481656445#5 481656445#6 481656445#7 195917282#0 195917282#2-AddedOnRampEdge 195917282#2 195917285#0 195917285#1 195917280"/>
    </vehicle>
    <vehicle id="31" depart="31.00">
        <route edges="1087907906 -499956496 51688098#1 51688098#2 51688098#3 51688137#0 51688137#1 51688137#2 217530739#1 217530739#3 217530739#6 217530739#7 217530739#8 217530739#8-AddedOffRampEdge 217530739#9 217530739#10 217530739#11 217530739#15 217530739#16 217530739#18 195917288 499917458"/>
    </vehicle>
    <vehicle id="32" depart="32.00">
        <route edges="217530739#19 217530739#20 217530739#21 217530739#22 217530739#23 217530739#24 217530739#25 499938673#0 498361966 499978425#1 499978425#2 499978425#3 499978425#4 499978425#5 499978425#6 499978425#6-AddedOffRampEdge 100959747 195917282#2-AddedOnRampEdge 195917282#2 100959743#2 100959743#3 648344035#6 100959730#0 100959730#1 100959730#2 100959730#4 50339452#0 50339452#2 50339452#3 50339452#4"/>
    </vehicle>
    <vehicle id="33" depart="33.00">
        <route edges="-50339452#3 -50339452#2 -50339452#0 100959730#6 100959730#6-AddedOffRampEdge 100959721 481656449#2 196112459#0 196112459#1 196112459#4 196112459#5 196112459#6 196112459#7"/>
    </vehicle>
    <vehicle id="34" depart="34.00">
        <route edges="196112459#4 196112459#5 196112459#6 196112459#7 196112459#8 57890791 51688137#1 51688137#2 217530739#1 217530739#3 217530739#6 217530739#7 217530739#8 217530739#8-AddedOffRampEdge 217530739#9 217530739#10 217530739#11 217530739#15 217530739#16 217530739#18"/>
    </vehicle>
    <vehicle id="35" depart="35.00">
        <route edges="636923664#2 636923664#3 636923664#4 636923664#5 52032833#0 52032833#1 499969907#0 481656445#2 481656445#4 481656445#5 481656445#6 481656445#7 195917282#0 195917282#2-AddedOnRampEdge 195917282#2 100959743#2 100959743#3 648344035#6 100959730#0 1092921228#3"/>
    </vehicle>
    <vehicle id="36" depart="36.00">
        <route edges="104783574#0 104783574#1 1087156867 808660935#1 808660935#2 808660933#0 808660933#1 808660933#2 808660933#3 195958213#2 195958213#3 195958213#4 993375063 -178960761#1 -178960761#0 100959722#0 481656449#0 481656449#2 196112459#0 196112459#1 196112459#4 196112459#5 196112459#6 196112459#7 196112459#8 57890791 51688137#1 51688137#2 217530739#1"/>
    </vehicle>
    <vehicle id="37" depart="37.00">
        <route edges="1088155992 195917278#3 195917281 -195917285#1 -195917285#0 100959743#2 100959743#3 648344035#6 100959730#0 100959730#1 100959730#2 100959730#4 100959730#6 100959730#6-AddedOffRampEdge 26633202#1 871795247#0 871795247#2 871795247#3 871795247#7 871795247#9 871795247#10 871795247#11 -279159305#1 -279159305#0 708807184#4 708807184#5 708807184#6"/>
    </vehicle>
    <vehicle id="38" depart="38.00">
        <route edges="279159305#1 871795247#12 871795247#13 871795247#14 871795247#15 196018202 499978429#1 -26633207#1"/>
    </vehicle>
    <vehicle id="39" depart="39.00">
        <route edges="196018202 499978429#1 -26633207#1 -26633207#0 47518258#4 47518258#0 47518258#1 47518258#2 47518258#3 26633207#0 26633207#1 282467575#0 282467575#2 499978425#0 499978425#1 499978425#2 499978425#3 499978425#4 499978425#5 499978425#6 499978425#6-AddedOffRampEdge 481656447#0 195917286#1 178960764 871795247#2 871795247#3 871795247#7 871795247#9"/>
    </vehicle>
    <vehicle id="40" depart="40.00">
        <route edges="1094239631#1 47518258#3 26633207#0 26633207#1 282467575#0 282467575#2 499978425#0 499978425#1 499978425#2 499978425#3 499978425#4 499978425#5 499978425#6 499978425#6-AddedOffRampEdge 100959747 195917282#2-AddedOnRampEdge 195917282#2 100959743#2 100959743#3 648344035#6 100959730#0 100959730#1 100959730#2 100959730#4 50339452#0 50339452#2 50339452#3 50339452#4"/>
    </vehicle>
    <vehicle id="41" depart="41.00">
        <route edges="217530739#11 100959730#2 100959730#4 100959730#6 100959730#6-AddedOffRampEdge 100959721 481656449#2 196112459#0 196112459#1 196112459#4 196112459#5"/>
    </vehicle>
    <vehicle id="42" depart="42.00">
        <route edges="871795247#12 871795247#13 871795247#14 871795247#15 871795247#16 499978425#0 499978425#1 499978425#2 499978425#3 499978425#4 499978425#5 499978425#6 499978425#6-AddedOffRampEdge 481656447#0 195917286#1 178960761#0 178960761#1 993413014 195958213#1 195958213#2 195958213#3 195958213#4 993375063"/>
    </vehicle>
    <vehicle id="43" depart="43.00">
        <route edges="282467575#0 282467575#2 499978425#0"/>
    </vehicle>
    <vehicle id="44" depart="44.00">
        <route edges="26633207#1 282467575#0 282467575#2 499978429#0"/>
    </vehicle>
    <vehicle id="45" depart="45.00">
        <route edges="100959743#2 100959743#3 648344035#6 100959730#0 100959730#1 100959730#2 100959730#4 100959730#6 100959730#6-AddedOffRampEdge 26633202#1 871795247#0 871795247#2 871795247#3 871795247#7 871795247#9 871795247#10 871795247#11 871795247#12 871795247#13"/>
    </vehicle>
    <vehicle id="46" depart="46.00">
        <route edges="1087907905 320816287#5 320816287#6 320816287#1 320816287#2 320816287#3 1087907906 -499956496 51688098#1 51688098#2 51688098#3 51688137#0 51688137#1 51688137#2 217530739#1 217530739#3 217530739#6 217530739#7 217530739#8 217530739#8-AddedOffRampEdge 217530739#9 217530739#10 217530739#11 100959730#2"/>
    </vehicle>
    <vehicle id="47" depart="47.00">
        <route edges="648344035#6 100959730#0 100959730#1 100959730#2 100959730#4 100959730#6 100959730#6-AddedOffRampEdge 100959721 481656449#2 196112459#0 196112459#1 196112459#4 196112459#5 196112459#6 196112459#7 196112459#8 57890791 51688137#1 51688137#2 217530739#1 217530739#3 217530739#6 217530739#7 217530739#8 217530739#8-AddedOffRampEdge 1092921228#0"/>
    </vehicle>
    <vehicle id="48" depart="48.00">
        <route edges="1087156866#1 1039385960#1 1039385960#2 1039385960#3 1039385964#0 1039385964#1 636923664#0 636923664#1 636923664#2 636923664#3 636923664#4 636923664#5 52032833#0 52032833#1 499969907#0 481656445#2 481656445#4 481656445#5 481656445#6 481656445#7 871795247#0 871795247#2 871795247#3 871795247#7 871795247#9 871795247#10 871795247#11 871795247#12 871795247#13 871795247#14 871795247#15 871795247#16 499978425#0"/>
    </vehicle>
    <vehicle id="49" depart="49.00">
        <route edges="1087907906 -499956496 51688098#1 51688098#2 51688098#3 51688137#0 51688137#1 51688137#2 217530739#1 217530739#3 217530739#6 217530739#7 217530739#8 217530739#8-AddedOffRampEdge 217530739#9 217530739#10 100959746 100959730#4 100959730#6 100959730#6-AddedOffRampEdge 26633202#1 871795247#0 871795247#2 871795247#3 871795247#7 871795247#9 871795247#10 871795247#11 871795247#12 871795247#13 871795247#14 871795247#15 871795247#16 196112453#0 196112453#1 196112453#2 196112453#3-AddedOnRampEdge 196112453#3"/>
    </vehicle>
</routes>
