<?xml version="1.0" encoding="UTF-8"?>

<!-- generated on 2026-03-27T12:44:33.747381+04:00 by Eclipse SUMO netconvert 1.26.0
<netconvertConfiguration xmlns:xsi="http://www.w3.org/2001/XMLSchema-instance" xsi:noNamespaceSchemaLocation="http://sumo.dlr.de/xsd/netconvertConfiguration.xsd">

    <input>
        <osm-files value="/Users/karimboubouh/Workspace/R/sumo/scenarios/sharjah_university/map.osm"/>
    </input>

    <output>
        <output-file value="/Users/karimboubouh/Workspace/R/sumo/scenarios/sharjah_university/network.net.xml"/>
    </output>

    <projection>
        <proj.utm value="true"/>
    </projection>

    <processing>
        <geometry.remove value="true"/>
        <offset.disable-normalization value="true"/>
    </processing>

    <tls_building>
        <tls.discard-simple value="true"/>
        <tls.join value="true"/>
        <tls.guess-signals value="true"/>
    </tls_building>

    <ramp_guessing>
        <ramps.guess value="true"/>
    </ramp_guessing>

    <junctions>
        <no-turnarounds value="true"/>
        <junctions.join value="true"/>
    </junctions>

</netconvertConfiguration>
-->

<net version="1.20" junctionCornerDetail="5" limitTurnSpeed="5.50" xmlns:xsi="http://www.w3.org/2001/XMLSchema-instance" xsi:noNamespaceSchemaLocation="http://sumo.dlr.de/xsd/net_file.xsd">

    <location netOffset="0.00,0.00" convBoundary="343435.80,2797005.92,345841.48,2800027.75" origBoundary="55.444785,25.281450,55.468768,25.308623" projParameter="+proj=utm +zone=40 +ellps=WGS84 +datum=WGS84 +units=m +no_defs"/>

    <type id="highway.residential" priority="3" numLanes="1" speed="13.89" disallow="tram rail_urban rail rail_electric rail_fast ship container cable_car subway aircraft wheelchair scooter drone" oneway="0"/>
    <type id="highway.secondary" priority="11" numLanes="1" speed="27.78" disallow="tram rail_urban rail rail_electric rail_fast ship container cable_car subway aircraft wheelchair scooter drone" oneway="0"/>
    <type id="highway.secondary_link" priority="6" numLanes="1" speed="22.22" disallow="tram rail_urban rail rail_electric rail_fast ship container cable_car subway aircraft wheelchair scooter drone" oneway="0"/>
    <type id="highway.service" priority="1" numLanes="1" speed="5.56" allow="pedestrian delivery bicycle" oneway="0"/>
    <type id="highway.tertiary" priority="10" numLanes="1" speed="22.22" disallow="tram rail_urban rail rail_electric rail_fast ship container cable_car subway aircraft wheelchair scooter drone" oneway="0"/>
    <type id="highway.tertiary_link" priority="5" numLanes="1" speed="22.22" disallow="tram rail_urban rail rail_electric rail_fast ship container cable_car subway aircraft wheelchair scooter drone" oneway="0"/>
    <type id="highway.trunk" priority="13" numLanes="2" speed="27.78" disallow="pedestrian bicycle tram rail_urban rail rail_electric rail_fast ship container cable_car subway aircraft wheelchair scooter drone" oneway="0"/>
    <type id="highway.trunk_link" priority="8" numLanes="1" speed="22.22" disallow="pedestrian bicycle tram rail_urban rail rail_electric rail_fast ship container cable_car subway aircraft wheelchair scooter drone" oneway="0"/>
    <type id="highway.unclassified" priority="4" numLanes="1" speed="13.89" disallow="tram rail_urban rail rail_electric rail_fast ship container cable_car subway aircraft wheelchair scooter drone" oneway="0"/>

    <edge id=":10111445060_0" function="internal">
        <lane id=":10111445060_0_0" index="0" disallow="pedestrian bicycle tram rail_urban rail rail_electric rail_fast ship container cable_car subway aircraft wheelchair scooter drone" speed="25.00" length="3.65" shape="345017.26,2798240.79 345019.06,2798243.96"/>
    </edge>
    <edge id=":10111445060_1" function="internal">
        <lane id=":10111445060_1_0" index="0" disallow="pedestrian bicycle tram rail_urban rail rail_electric rail_fast ship container cable_car subway aircraft wheelchair scooter drone" speed="27.78" length="3.10" shape="345014.55,2798242.50 345016.32,2798245.39"/>
        <lane id=":10111445060_1_1" index="1" disallow="pedestrian bicycle tram rail_urban rail rail_electric rail_fast ship container cable_car subway aircraft wheelchair scooter drone" speed="27.78" length="3.10" shape="345011.85,2798244.22 345013.47,2798246.86"/>
        <lane id=":10111445060_1_2" index="2" disallow="pedestrian bicycle tram rail_urban rail rail_electric rail_fast ship container cable_car subway aircraft wheelchair scooter drone" speed="27.78" length="3.10" shape="345009.15,2798245.93 345010.63,2798248.34"/>
    </edge>
    <edge id=":10111478225_0" function="internal">
        <lane id=":10111478225_0_0" index="0" disallow="pedestrian bicycle tram rail_urban rail rail_electric rail_fast ship container cable_car subway aircraft wheelchair scooter drone" speed="25.00" length="2.56" shape="345076.35,2798798.99 345076.58,2798798.27 345076.78,2798797.78 345077.03,2798797.33 345077.43,2798796.69"/>
    </edge>
    <edge id=":10111478225_1" function="internal">
        <lane id=":10111478225_1_0" index="0" disallow="pedestrian bicycle tram rail_urban rail rail_electric rail_fast ship container cable_car subway aircraft wheelchair scooter drone" speed="27.78" length="2.56" shape="345079.40,2798799.95 345079.60,2798799.31 345079.73,2798798.86 345079.84,2798798.41 345079.99,2798797.76"/>
        <lane id=":10111478225_1_1" index="1" disallow="pedestrian bicycle tram rail_urban rail rail_electric rail_fast ship container cable_car subway aircraft wheelchair scooter drone" speed="27.78" length="2.56" shape="345082.45,2798800.91 345082.68,2798800.19 345082.83,2798799.69 345082.95,2798799.18 345083.11,2798798.44"/>
        <lane id=":10111478225_1_2" index="2" disallow="pedestrian bicycle tram rail_urban rail rail_electric rail_fast ship container cable_car subway aircraft wheelchair scooter drone" speed="27.78" length="2.56" shape="345085.51,2798801.87 345085.76,2798801.07 345085.92,2798800.51 345086.06,2798799.95 345086.24,2798799.12"/>
    </edge>
    <edge id=":10111478231_0" function="internal">
        <lane id=":10111478231_0_0" index="0" disallow="bicycle tram rail_urban rail rail_electric rail_fast ship container cable_car subway aircraft wheelchair scooter drone" speed="6.68" length="2.51" shape="345123.81,2798602.36 345123.85,2798603.10 345123.84,2798603.62 345123.69,2798604.11 345123.34,2798604.75"/>
    </edge>
    <edge id=":10111478231_1" function="internal">
        <lane id=":10111478231_1_0" index="0" disallow="pedestrian bicycle tram rail_urban rail rail_electric rail_fast ship container cable_car subway aircraft wheelchair scooter drone" speed="27.78" length="3.09" shape="345120.61,2798602.50 345120.72,2798605.65"/>
        <lane id=":10111478231_1_1" index="1" disallow="pedestrian bicycle tram rail_urban rail rail_electric rail_fast ship container cable_car subway aircraft wheelchair scooter drone" speed="27.78" length="3.09" shape="345117.41,2798602.64 345117.52,2798605.73"/>
        <lane id=":10111478231_1_2" index="2" disallow="pedestrian bicycle tram rail_urban rail rail_electric rail_fast ship container cable_car subway aircraft wheelchair scooter drone" speed="27.78" length="3.09" shape="345114.22,2798602.78 345114.32,2798605.80"/>
    </edge>
    <edge id=":10111478235_0" function="internal">
        <lane id=":10111478235_0_0" index="0" disallow="pedestrian bicycle tram rail_urban rail rail_electric rail_fast ship container cable_car subway aircraft wheelchair scooter drone" speed="5.41" length="2.21" shape="345096.36,2798642.63 345095.96,2798642.14 345095.78,2798641.72 345095.75,2798641.25 345095.75,2798640.60"/>
    </edge>
    <edge id=":10111478235_1" function="internal">
        <lane id=":10111478235_1_0" index="0" disallow="pedestrian bicycle tram rail_urban rail rail_electric rail_fast ship container cable_car subway aircraft wheelchair scooter drone" speed="27.78" length="2.80" shape="345098.91,2798643.24 345098.95,2798640.57"/>
        <lane id=":10111478235_1_1" index="1" disallow="pedestrian bicycle tram rail_urban rail rail_electric rail_fast ship container cable_car subway aircraft wheelchair scooter drone" speed="27.78" length="2.80" shape="345102.11,2798643.35 345102.15,2798640.55"/>
        <lane id=":10111478235_1_2" index="2" disallow="pedestrian bicycle tram rail_urban rail rail_electric rail_fast ship container cable_car subway aircraft wheelchair scooter drone" speed="27.78" length="2.80" shape="345105.31,2798643.46 345105.35,2798640.52"/>
    </edge>
    <edge id=":10116415544_0" function="internal">
        <lane id=":10116415544_0_0" index="0" disallow="tram rail_urban rail rail_electric rail_fast ship container cable_car subway aircraft wheelchair scooter drone" speed="22.22" length="6.21" shape="344085.71,2799076.32 344082.19,2799071.21"/>
    </edge>
    <edge id=":10116415544_1" function="internal">
        <lane id=":10116415544_1_0" index="0" allow="pedestrian delivery bicycle" speed="6.18" length="1.61" shape="344085.71,2799076.32 344085.31,2799075.04 344085.39,2799074.78"/>
    </edge>
    <edge id=":10116415544_4" function="internal">
        <lane id=":10116415544_4_0" index="0" allow="pedestrian delivery bicycle" speed="6.18" length="6.16" shape="344085.39,2799074.78 344085.75,2799073.58 344087.03,2799071.92 344089.15,2799070.09"/>
    </edge>
    <edge id=":10116415544_2" function="internal">
        <lane id=":10116415544_2_0" index="0" allow="pedestrian delivery bicycle" speed="4.99" length="5.06" shape="344084.82,2799069.39 344085.77,2799070.42 344086.81,2799070.87 344087.93,2799070.76 344089.15,2799070.09"/>
    </edge>
    <edge id=":10116415544_3" function="internal">
        <lane id=":10116415544_3_0" index="0" disallow="tram rail_urban rail rail_electric rail_fast ship container cable_car subway aircraft wheelchair scooter drone" speed="22.22" length="6.20" shape="344084.82,2799069.39 344088.34,2799074.50"/>
    </edge>
    <edge id=":10116415547_0" function="internal">
        <lane id=":10116415547_0_0" index="0" disallow="tram rail_urban rail rail_electric rail_fast ship container cable_car subway aircraft wheelchair scooter drone" speed="22.22" length="5.84" shape="343981.00,2798924.45 343977.68,2798919.63"/>
    </edge>
    <edge id=":10116415547_1" function="internal">
        <lane id=":10116415547_1_0" index="0" allow="pedestrian delivery bicycle" speed="5.98" length="1.54" shape="343981.00,2798924.45 343980.63,2798923.21 343980.71,2798922.98"/>
    </edge>
    <edge id=":10116415547_4" function="internal">
        <lane id=":10116415547_4_0" index="0" allow="pedestrian delivery bicycle" speed="5.98" length="6.03" shape="343980.71,2798922.98 343981.11,2798921.83 343982.46,2798920.30 343984.66,2798918.62"/>
    </edge>
    <edge id=":10116415547_2" function="internal">
        <lane id=":10116415547_2_0" index="0" allow="pedestrian delivery bicycle" speed="5.07" length="5.02" shape="343980.32,2798917.82 343981.24,2798918.82 343982.28,2798919.29 343983.42,2798919.22 343984.66,2798918.62"/>
    </edge>
    <edge id=":10116415547_3" function="internal">
        <lane id=":10116415547_3_0" index="0" disallow="tram rail_urban rail rail_electric rail_fast ship container cable_car subway aircraft wheelchair scooter drone" speed="22.22" length="5.84" shape="343980.32,2798917.82 343983.63,2798922.63"/>
    </edge>
    <edge id=":10116415552_0" function="internal">
        <lane id=":10116415552_0_0" index="0" disallow="tram rail_urban rail rail_electric rail_fast ship container cable_car subway aircraft wheelchair scooter drone" speed="22.22" length="6.08" shape="344078.09,2799065.27 344074.64,2799060.27"/>
    </edge>
    <edge id=":10116415552_1" function="internal">
        <lane id=":10116415552_1_0" index="0" allow="pedestrian delivery bicycle" speed="5.13" length="5.06" shape="344081.53,2799059.05 344080.53,2799060.04 344080.06,2799061.10 344080.13,2799062.24 344080.72,2799063.45"/>
    </edge>
    <edge id=":10116415552_2" function="internal">
        <lane id=":10116415552_2_0" index="0" allow="pedestrian delivery bicycle" speed="6.01" length="7.79" shape="344081.53,2799059.05 344079.19,2799060.56 344077.26,2799061.27 344075.75,2799061.17 344074.64,2799060.27"/>
    </edge>
    <edge id=":10116415552_3" function="internal">
        <lane id=":10116415552_3_0" index="0" disallow="tram rail_urban rail rail_electric rail_fast ship container cable_car subway aircraft wheelchair scooter drone" speed="22.22" length="6.07" shape="344077.28,2799058.46 344080.72,2799063.45"/>
    </edge>
    <edge id=":10116415562_0" function="internal">
        <lane id=":10116415562_0_0" index="0" disallow="tram rail_urban rail rail_electric rail_fast ship container cable_car subway aircraft wheelchair scooter drone" speed="22.22" length="6.12" shape="344074.53,2799060.10 344071.06,2799055.07"/>
    </edge>
    <edge id=":10116415562_1" function="internal">
        <lane id=":10116415562_1_0" index="0" allow="pedestrian delivery bicycle" speed="6.04" length="1.67" shape="344074.53,2799060.10 344074.08,2799058.75 344074.16,2799058.51"/>
    </edge>
    <edge id=":10116415562_4" function="internal">
        <lane id=":10116415562_4_0" index="0" allow="pedestrian delivery bicycle" speed="6.04" length="6.10" shape="344074.16,2799058.51 344074.52,2799057.30 344075.85,2799055.73 344078.06,2799054.05"/>
    </edge>
    <edge id=":10116415562_2" function="internal">
        <lane id=":10116415562_2_0" index="0" allow="pedestrian delivery bicycle" speed="5.10" length="5.03" shape="344073.70,2799053.25 344074.62,2799054.24 344075.66,2799054.71 344076.80,2799054.65 344078.06,2799054.05"/>
    </edge>
    <edge id=":10116415562_3" function="internal">
        <lane id=":10116415562_3_0" index="0" disallow="tram rail_urban rail rail_electric rail_fast ship container cable_car subway aircraft wheelchair scooter drone" speed="22.22" length="6.12" shape="344073.70,2799053.25 344077.17,2799058.29"/>
    </edge>
    <edge id=":10116415563_0" function="internal">
        <lane id=":10116415563_0_0" index="0" allow="pedestrian delivery bicycle" speed="5.56" length="3.97" shape="344097.21,2799046.25 344096.27,2799046.95 344095.69,2799047.51 344095.18,2799048.14 344094.42,2799049.04"/>
    </edge>
    <edge id=":10116415563_1" function="internal">
        <lane id=":10116415563_1_0" index="0" allow="pedestrian delivery bicycle" speed="5.56" length="4.38" shape="344091.50,2799045.56 344092.72,2799045.10 344093.54,2799044.75 344094.32,2799044.32 344095.41,2799043.60"/>
    </edge>
    <edge id=":10116415563_2" function="internal">
        <lane id=":10116415563_2_0" index="0" allow="pedestrian delivery bicycle" speed="5.34" length="10.50" shape="344091.50,2799045.56 344095.09,2799044.49 344096.77,2799044.71 344096.55,2799046.23 344094.42,2799049.04"/>
    </edge>
    <edge id=":10116415568_0" function="internal">
        <lane id=":10116415568_0_0" index="0" allow="pedestrian delivery bicycle" speed="5.56" length="5.00" shape="344343.41,2798924.78 344342.71,2798923.48 344342.11,2798922.62 344341.28,2798922.02 344339.94,2798921.46"/>
    </edge>
    <edge id=":10116415568_1" function="internal">
        <lane id=":10116415568_1_0" index="0" allow="pedestrian delivery bicycle" speed="5.56" length="9.47" shape="344343.41,2798924.78 344343.07,2798923.14 344343.70,2798921.33 344345.30,2798919.36 344347.87,2798917.22"/>
    </edge>
    <edge id=":10116415568_2" function="internal">
        <lane id=":10116415568_2_0" index="0" allow="pedestrian delivery bicycle" speed="4.90" length="5.01" shape="344348.69,2798920.46 344347.36,2798921.44 344346.61,2798922.43 344346.46,2798923.43 344346.91,2798924.44"/>
    </edge>
    <edge id=":10116415568_3" function="internal">
        <lane id=":10116415568_3_0" index="0" allow="pedestrian delivery bicycle" speed="5.56" length="9.10" shape="344348.69,2798920.46 344346.52,2798921.49 344344.34,2798921.99 344342.15,2798921.99 344339.94,2798921.46"/>
    </edge>
    <edge id=":10116415568_4" function="internal">
        <lane id=":10116415568_4_0" index="0" allow="pedestrian delivery bicycle" speed="5.56" length="8.27" shape="344340.20,2798918.16 344341.91,2798918.95 344343.76,2798919.06 344345.74,2798918.48 344347.87,2798917.22"/>
    </edge>
    <edge id=":10116415568_5" function="internal">
        <lane id=":10116415568_5_0" index="0" allow="pedestrian delivery bicycle" speed="5.56" length="9.27" shape="344340.20,2798918.16 344342.47,2798919.72 344343.96,2798920.89 344345.25,2798922.26 344346.91,2798924.44"/>
    </edge>
    <edge id=":10116415575_0" function="internal">
        <lane id=":10116415575_0_0" index="0" allow="pedestrian delivery bicycle" speed="5.56" length="7.98" shape="344377.50,2798929.78 344377.56,2798928.15 344377.16,2798926.38 344376.30,2798924.47 344374.99,2798922.42"/>
    </edge>
    <edge id=":10116415575_1" function="internal">
        <lane id=":10116415575_1_0" index="0" allow="pedestrian delivery bicycle" speed="5.56" length="9.34" shape="344377.50,2798929.78 344378.16,2798927.37 344379.21,2798925.30 344380.64,2798923.58 344382.45,2798922.19"/>
    </edge>
    <edge id=":10116415575_2" function="internal">
        <lane id=":10116415575_2_0" index="0" allow="pedestrian delivery bicycle" speed="5.56" length="5.74" shape="344384.11,2798924.92 344382.86,2798925.84 344381.90,2798926.89 344381.22,2798928.08 344380.82,2798929.42"/>
    </edge>
    <edge id=":10116415575_3" function="internal">
        <lane id=":10116415575_3_0" index="0" allow="pedestrian delivery bicycle" speed="5.56" length="10.59" shape="344384.11,2798924.92 344381.64,2798925.92 344379.30,2798925.84 344377.08,2798924.67 344374.99,2798922.42"/>
    </edge>
    <edge id=":10116415575_4" function="internal">
        <lane id=":10116415575_4_0" index="0" allow="pedestrian delivery bicycle" speed="5.25" length="5.18" shape="344377.96,2798921.07 344378.97,2798922.14 344380.06,2798922.68 344381.21,2798922.70 344382.45,2798922.19"/>
    </edge>
    <edge id=":10116415575_5" function="internal">
        <lane id=":10116415575_5_0" index="0" allow="pedestrian delivery bicycle" speed="5.56" length="9.05" shape="344377.96,2798921.07 344379.46,2798923.39 344380.43,2798925.56 344380.88,2798927.57 344380.82,2798929.42"/>
    </edge>
    <edge id=":10116415581_0" function="internal">
        <lane id=":10116415581_0_0" index="0" allow="pedestrian delivery bicycle" speed="5.05" length="5.01" shape="344366.86,2798911.24 344365.90,2798910.25 344364.86,2798909.81 344363.73,2798909.90 344362.52,2798910.54"/>
    </edge>
    <edge id=":10116415581_1" function="internal">
        <lane id=":10116415581_1_0" index="0" allow="pedestrian delivery bicycle" speed="5.56" length="10.17" shape="344366.86,2798911.24 344365.55,2798908.77 344365.35,2798906.49 344366.25,2798904.37 344368.25,2798902.43"/>
    </edge>
    <edge id=":10116415581_2" function="internal">
        <lane id=":10116415581_2_0" index="0" allow="pedestrian delivery bicycle" speed="5.04" length="5.00" shape="344370.13,2798905.03 344369.15,2798905.98 344368.70,2798907.02 344368.80,2798908.14 344369.44,2798909.36"/>
    </edge>
    <edge id=":10116415581_3" function="internal">
        <lane id=":10116415581_3_0" index="0" allow="pedestrian delivery bicycle" speed="5.56" length="9.40" shape="344370.13,2798905.03 344362.52,2798910.54"/>
    </edge>
    <edge id=":10116415581_4" function="internal">
        <lane id=":10116415581_4_0" index="0" allow="pedestrian delivery bicycle" speed="5.56" length="9.41" shape="344360.64,2798907.95 344368.25,2798902.43"/>
    </edge>
    <edge id=":10116415581_5" function="internal">
        <lane id=":10116415581_5_0" index="0" allow="pedestrian delivery bicycle" speed="5.56" length="10.16" shape="344360.64,2798907.95 344363.10,2798906.66 344365.39,2798906.46 344367.50,2798907.36 344369.44,2798909.36"/>
    </edge>
    <edge id=":10116415602_0" function="internal">
        <lane id=":10116415602_0_0" index="0" allow="pedestrian delivery bicycle" speed="4.79" length="5.39" shape="344429.12,2798953.30 344428.09,2798952.14 344427.02,2798951.72 344425.91,2798952.02 344424.76,2798953.06"/>
    </edge>
    <edge id=":10116415602_1" function="internal">
        <lane id=":10116415602_1_0" index="0" disallow="tram rail_urban rail rail_electric rail_fast ship container cable_car subway aircraft wheelchair scooter drone" speed="13.89" length="6.34" shape="344429.12,2798953.30 344425.61,2798948.02"/>
    </edge>
    <edge id=":10116415603_0" function="internal">
        <lane id=":10116415603_0_0" index="0" disallow="tram rail_urban rail rail_electric rail_fast ship container cable_car subway aircraft wheelchair scooter drone" speed="13.89" length="6.30" shape="344424.76,2798946.73 344421.27,2798941.48"/>
    </edge>
    <edge id=":10116415603_1" function="internal">
        <lane id=":10116415603_1_0" index="0" allow="pedestrian delivery bicycle" speed="5.71" length="5.42" shape="344420.40,2798946.41 344421.35,2798945.11 344421.81,2798943.86 344421.79,2798942.65 344421.27,2798941.48"/>
    </edge>
    <edge id=":10116415609_0" function="internal">
        <lane id=":10116415609_0_0" index="0" allow="pedestrian delivery bicycle" speed="5.56" length="6.19" shape="344407.87,2798967.13 344406.55,2798968.36 344405.90,2798969.49 344405.25,2798970.60 344403.91,2798971.81"/>
    </edge>
    <edge id=":10116415609_1" function="internal">
        <lane id=":10116415609_1_0" index="0" allow="pedestrian delivery bicycle" speed="4.72" length="6.25" shape="344407.87,2798967.13 344406.19,2798968.01 344404.99,2798967.96 344404.27,2798966.97 344404.03,2798965.05"/>
    </edge>
    <edge id=":10116415609_2" function="internal">
        <lane id=":10116415609_2_0" index="0" allow="pedestrian delivery bicycle" speed="5.56" length="4.71" shape="344402.13,2798969.15 344402.96,2798968.41 344403.55,2798967.49 344403.91,2798966.37 344404.03,2798965.05"/>
    </edge>
    <edge id=":10116415612_0" function="internal">
        <lane id=":10116415612_0_0" index="0" disallow="tram rail_urban rail rail_electric rail_fast ship container cable_car subway aircraft wheelchair scooter drone" speed="22.22" length="6.21" shape="344051.19,2799026.25 344047.67,2799021.14"/>
    </edge>
    <edge id=":10116415612_1" function="internal">
        <lane id=":10116415612_1_0" index="0" allow="pedestrian delivery bicycle" speed="5.09" length="5.03" shape="344054.63,2799020.08 344053.63,2799021.04 344053.16,2799022.09 344053.23,2799023.22 344053.83,2799024.44"/>
    </edge>
    <edge id=":10116415612_2" function="internal">
        <lane id=":10116415612_2_0" index="0" allow="pedestrian delivery bicycle" speed="6.06" length="7.82" shape="344054.63,2799020.08 344052.27,2799021.53 344050.32,2799022.20 344048.79,2799022.07 344047.67,2799021.14"/>
    </edge>
    <edge id=":10116415612_3" function="internal">
        <lane id=":10116415612_3_0" index="0" disallow="tram rail_urban rail rail_electric rail_fast ship container cable_car subway aircraft wheelchair scooter drone" speed="22.22" length="6.20" shape="344050.31,2799019.33 344053.83,2799024.44"/>
    </edge>
    <edge id=":10116423828_0" function="internal">
        <lane id=":10116423828_0_0" index="0" allow="pedestrian delivery bicycle" speed="6.85" length="11.55" shape="344310.52,2798779.31 344307.74,2798775.59 344305.40,2798773.28 344303.51,2798772.38 344302.07,2798772.89"/>
    </edge>
    <edge id=":10116423828_1" function="internal">
        <lane id=":10116423828_1_0" index="0" disallow="tram rail_urban rail rail_electric rail_fast ship container cable_car subway aircraft wheelchair scooter drone" speed="13.89" length="17.49" shape="344310.52,2798779.31 344300.73,2798764.82"/>
    </edge>
    <edge id=":10116423828_2" function="internal">
        <lane id=":10116423828_2_0" index="0" disallow="pedestrian tram rail_urban rail rail_electric rail_fast ship container cable_car subway aircraft wheelchair scooter drone" speed="15.81" length="17.40" shape="344310.52,2798779.31 344308.38,2798775.75 344306.42,2798771.57 344305.03,2798767.23 344304.62,2798763.18"/>
    </edge>
    <edge id=":10116423828_3" function="internal">
        <lane id=":10116423828_3_0" index="0" allow="delivery bicycle" speed="9.48" length="11.94" shape="344313.51,2798776.15 344311.41,2798775.44 344307.69,2798774.16 344304.02,2798773.07 344302.07,2798772.89"/>
    </edge>
    <edge id=":10116423828_4" function="internal">
        <lane id=":10116423828_4_0" index="0" disallow="pedestrian tram rail_urban rail rail_electric rail_fast ship container cable_car subway aircraft wheelchair scooter drone" speed="14.37" length="17.37" shape="344313.51,2798776.15 344309.86,2798774.45 344306.34,2798771.59 344303.21,2798768.17 344300.73,2798764.82"/>
    </edge>
    <edge id=":10116423828_5" function="internal">
        <lane id=":10116423828_5_0" index="0" disallow="pedestrian tram rail_urban rail rail_electric rail_fast ship container cable_car subway aircraft wheelchair scooter drone" speed="9.46" length="17.26" shape="344313.51,2798776.15 344309.41,2798774.45 344306.56,2798771.72 344304.96,2798767.96 344304.62,2798763.18"/>
    </edge>
    <edge id=":10116423829_0" function="internal">
        <lane id=":10116423829_0_0" index="0" disallow="tram rail_urban rail rail_electric rail_fast ship container cable_car subway aircraft wheelchair scooter drone" speed="13.89" length="6.28" shape="344299.89,2798763.57 344296.38,2798758.36"/>
    </edge>
    <edge id=":10116423829_1" function="internal">
        <lane id=":10116423829_1_0" index="0" allow="pedestrian delivery bicycle" speed="5.57" length="5.35" shape="344295.54,2798763.18 344296.50,2798761.94 344296.96,2798760.73 344296.92,2798759.53 344296.38,2798758.36"/>
    </edge>
    <edge id=":10116423842_0" function="internal">
        <lane id=":10116423842_0_0" index="0" disallow="tram rail_urban rail rail_electric rail_fast ship container cable_car subway aircraft wheelchair scooter drone" speed="11.11" length="3.01" shape="344303.30,2798747.38 344301.58,2798744.88"/>
        <lane id=":10116423842_0_1" index="1" disallow="tram rail_urban rail rail_electric rail_fast ship container cable_car subway aircraft wheelchair scooter drone" speed="11.11" length="3.01" shape="344305.93,2798745.56 344304.23,2798743.08"/>
        <lane id=":10116423842_0_2" index="2" disallow="tram rail_urban rail rail_electric rail_fast ship container cable_car subway aircraft wheelchair scooter drone" speed="11.11" length="3.01" shape="344308.57,2798743.74 344306.87,2798741.27"/>
    </edge>
    <edge id=":10116423842_3" function="internal">
        <lane id=":10116423842_3_0" index="0" disallow="pedestrian tram rail_urban rail rail_electric rail_fast ship container cable_car subway aircraft wheelchair scooter drone" speed="16.66" length="3.04" shape="344300.67,2798749.19 344298.94,2798746.69"/>
    </edge>
    <edge id=":10116423859_0" function="internal">
        <lane id=":10116423859_0_0" index="0" allow="pedestrian delivery bicycle" speed="5.56" length="7.85" shape="344285.04,2798786.27 344278.25,2798790.21"/>
    </edge>
    <edge id=":10116423859_1" function="internal">
        <lane id=":10116423859_1_0" index="0" allow="pedestrian delivery bicycle" speed="5.56" length="9.85" shape="344285.04,2798786.27 344281.86,2798787.73 344279.77,2798787.83 344278.76,2798786.57 344278.83,2798783.93"/>
    </edge>
    <edge id=":10116423859_2" function="internal">
        <lane id=":10116423859_2_0" index="0" allow="pedestrian delivery bicycle" speed="5.56" length="4.36" shape="344276.54,2798787.50 344277.38,2798786.84 344278.04,2798786.03 344278.52,2798785.06 344278.83,2798783.93"/>
    </edge>
    <edge id=":10116423883_0" function="internal">
        <lane id=":10116423883_0_0" index="0" allow="pedestrian delivery bicycle" speed="5.05" length="5.03" shape="344100.14,2798807.21 344099.21,2798806.19 344098.18,2798805.71 344097.05,2798805.77 344095.82,2798806.37"/>
    </edge>
    <edge id=":10116423883_1" function="internal">
        <lane id=":10116423883_1_0" index="0" allow="pedestrian delivery bicycle" speed="6.85" length="10.21" shape="344100.14,2798807.21 344098.90,2798804.70 344098.77,2798802.40 344099.74,2798800.31 344101.83,2798798.43"/>
    </edge>
    <edge id=":10116423883_2" function="internal">
        <lane id=":10116423883_2_0" index="0" allow="pedestrian delivery bicycle" speed="5.03" length="5.01" shape="344103.61,2798801.09 344102.59,2798802.01 344102.11,2798803.04 344102.18,2798804.16 344102.78,2798805.40"/>
    </edge>
    <edge id=":10116423883_3" function="internal">
        <lane id=":10116423883_3_0" index="0" disallow="tram rail_urban rail rail_electric rail_fast ship container cable_car subway aircraft wheelchair scooter drone" speed="22.22" length="9.41" shape="344103.61,2798801.09 344095.82,2798806.37"/>
    </edge>
    <edge id=":10116423883_4" function="internal">
        <lane id=":10116423883_4_0" index="0" disallow="tram rail_urban rail rail_electric rail_fast ship container cable_car subway aircraft wheelchair scooter drone" speed="22.22" length="9.44" shape="344094.01,2798803.73 344101.83,2798798.43"/>
    </edge>
    <edge id=":10116423883_5" function="internal">
        <lane id=":10116423883_5_0" index="0" allow="pedestrian delivery bicycle" speed="6.87" length="3.28" shape="344094.01,2798803.73 344096.51,2798802.50 344097.01,2798802.47"/>
    </edge>
    <edge id=":10116423883_6" function="internal">
        <lane id=":10116423883_6_0" index="0" allow="pedestrian delivery bicycle" speed="6.87" length="6.90" shape="344097.01,2798802.47 344098.80,2798802.37 344100.89,2798803.34 344102.78,2798805.40"/>
    </edge>
    <edge id=":10116423890_0" function="internal">
        <lane id=":10116423890_0_0" index="0" allow="pedestrian delivery bicycle" speed="5.05" length="5.01" shape="344087.22,2798816.01 344086.29,2798815.00 344085.25,2798814.53 344084.13,2798814.60 344082.90,2798815.20"/>
    </edge>