<?xml version="1.0" encoding="UTF-8"?>

<!-- generated on 2026-03-27 12:44:34.466088 by Eclipse SUMO randomTrips.py v0.0.0
<configuration>
    <net-file value="/Users/karimboubouh/Workspace/R/sumo/scenarios/sharjah_university/network.net.xml"/>
    <output-trip-file value="/Users/karimboubouh/Workspace/R/sumo/scenarios/sharjah_university/trips.xml"/>
    <route-file value="/Users/karimboubouh/Workspace/R/sumo/scenarios/sharjah_university/routes.rou.xml"/>
    <period value="60.0"/>
</configuration>
-->

<!-- generated on 2026-03-27T12:44:34.459521+04:00 by Eclipse SUMO duarouter 1.26.0
<duarouterConfiguration xmlns:xsi="http://www.w3.org/2001/XMLSchema-instance" xsi:noNamespaceSchemaLocation="http://sumo.dlr.de/xsd/duarouterConfiguration.xsd">

    <input>
        <net-file value="/Users/karimboubouh/Workspace/R/sumo/scenarios/sharjah_university/network.net.xml"/>
        <route-files value="/Users/karimboubouh/Workspace/R/sumo/scenarios/sharjah_university/trips.xml"/>
    </input>

    <output>
        <output-file value="/Users/karimboubouh/Workspace/R/sumo/scenarios/sharjah_university/routes.rou.xml"/>
        <alternatives-output value="NUL"/>
    </output>

    <time>
        <begin value="0"/>
        <end value="3600.0"/>
    </time>

    <report>
        <no-warnings value="true"/>
        <ignore-errors value="true"/>
        <no-step-log value="true"/>
    </report>

</duarouterConfiguration>
-->

<routes xmlns:xsi="http://www.w3.org/2001/XMLSchema-instance" xsi:noNamespaceSchemaLocation="http://sumo.dlr.de/xsd/routes_file.xsd">
    <vehicle id="0" depart="0.00">
        <route edges="1106519672#8 1106519672#9 612320757#0 612320757#2 817330123#5 817330123#6 817330123#7 817330123#8 817330123#9 817330123#10 817330123#11 817330123#12 817330123#13 817330123#14 817330123#15 817330123#16 -1155725053 -1106519672#3 -1106519672#2 -1201361496 -817330123#17"/>
    </vehicle>
    <vehicle id="1" depart="60.00">
        <route edges="496751483#4 496751483#5 496751483#6 496751484#3 496751484#4 496751484#5 496751484#6 496751484#7 496751484#0 496751484#1 496751485#0 496751485#1 496751485#2 496751485#3 496751485#4 496751485#5 496751485#6 496751485#7 496751485#8 496751485#9 496751485#10 1297874859#7 1297892395 1297874862#0 1297874862#1 1297874862#2 1297874862#3 1297874862#4 1297874862#5 1297874862#6 1297874862#7 1297874862#8 1106784827#8 1298074467 449594982#6-AddedOnRampEdge 449594982#6"/>
    </vehicle>
    <vehicle id="2" depart="120.00">
        <route edges="1297874862#4 1297874862#5 1297874862#6 1297874862#7 1297874862#8 1106784827#8 1106784827#9 1106784827#10 1106784827#11 1106784827#12 1106784827#13 1106784827#14 203975000#2 203975000#3 203975000#4 203975000#5 203975000#6 203975000#7 496751484#1 496751485#0 496751485#1 496751485#2 496751485#3 496751485#4 496751485#5 496751485#6 496751485#7 496751485#8 496751485#9 496751485#10 1297874859#7 1297874859#8 1297874859#1 1297874860#0 1297874860#1 1297874860#2 1297874860#3 1297874860#4 1297874860#5 1297874860#6 1297874865#1 1297874863 -496961569#4 496961554#0 -1106771539#1 -1106771539#0"/>
    </vehicle>
    <vehicle id="3" depart="180.00">
        <route edges="-1106519672#8 -1106519672#7 -1106519672#6 -1106519672#5 -1106519672#4 1155725053 -817330123#16 -817330123#15 -817330123#14 -817330123#13 -817330123#12 -817330123#11 -817330123#10 203978755#0 203978755#1 203978755#3 203978755#4 203978755#5 203978755#6 203978755#7 1297892393 1297874859#5 496751483#0 496751483#1 496751483#2 496751483#3 496751483#4 496751483#5 496751483#6 496751484#3 496751484#4 496751484#5 496751484#6 496751484#7 496751484#0 496751484#1 496751485#0 496751485#1 496751485#2 496751485#3 -1106537255 1106537254 -685746790#3 -685746790#2 -685746792#3 -685746792#2 -685746792#1"/>
    </vehicle>
    <vehicle id="4" depart="240.00">
        <route edges="-817330123#5 -612320757#2 -612320757#0 -1106519672#9 -1106519672#8 -1106519672#7 -1106519672#6 -1106519672#5 -1106519672#4 1155725053 -817330123#16 -817330123#15 -817330123#14 -817330123#13 -817330123#12 -817330123#11 -817330123#10 203978755#0 203978755#1 203978755#3 203978755#4 203978755#5 203978755#6 203978755#7 1297892393 1297874859#5 496751483#0 496751483#1 496751483#2 496751483#3 496751483#4 496751483#5 496751483#6 496751484#3 496751484#4 496751484#5 496751484#6 496751484#7 496751484#0 496751484#1 496751485#0 1106537260"/>
    </vehicle>
    <vehicle id="5" depart="300.00">
        <route edges="-1297874862#7 -1297874862#6 -1297874862#5 -1297874862#4 -1297874862#3 -1297874862#2 -1297874862#1 -1297874862#0 1297892396 1297874859#1 1297874859#2 1297874859#3 1297892394 -203978755#7 -203978755#6 -203978755#5 -203978755#4 -203978755#3 -203978755#1 -203978755#0 -817330123#9 -817330123#8 -817330123#7"/>
    </vehicle>
    <vehicle id="6" depart="360.00">
        <route edges="1106519672#4 1106519672#5 993855422 72894438#6-AddedOnRampEdge 72894438#6 203978764 -1106519672#8 -1106519672#7 -1106519672#6 -1106519672#5 -1106519672#4 -1106519672#3 -1106519672#2 -1106519672#1 -1201361495 1155725052#1 1155725052#2 496751486#4 496751480#1 496751480#2 1416754126 72894438#3"/>
    </vehicle>
    <vehicle id="7" depart="420.00">
        <route edges="-496961569#0 1106784827#2 1298074463 449594982#1 1298074457 1106784827#4 1106784827#5 1106784827#6 1106784827#7 -1297874862#8 -1297874862#7 -1297874862#6 -1297874862#5 -1297874862#4 -1297874862#3 -1297874862#2 -1297874862#1 -1297874862#0 1297892396 1297874859#1 1297874860#0 1297874860#1 1297874860#2 1297874860#3 1297874860#4 1297874860#5 1297874860#6 1297874865#1 1297874865#2 1297874865#3 1297874865#4 1297874865#5 496751482#0 496751482#1 496751482#2 496751482#3 496751482#4 496751482#5 496751482#6"/>
    </vehicle>
    <vehicle id="8" depart="480.00">
        <route edges="833101734#0-AddedOffRampEdge 432928182 432928175#5 432928175#6 432928175#7 432928180 432928174#5 432928174#6 432928174#7 432928174#8 432928174#1 432928177 432928165#1 432928165#2 432928165#3 432928165#4 432928165#5 432928165#6 432928165#7 432928165#8 432928176#0 432928176#1 432928176#2"/>
    </vehicle>
    <vehicle id="9" depart="540.00">
        <route edges="496961569#4 1297874864 1297874865#3 1297874865#4 1297874865#5 496751482#0 496751482#1 496751482#2 496751482#3 496751482#4 496751482#5 496751482#6 1297874859#3 1297874859#4 1297874859#5 496751483#0 496751483#1 496751483#2 496751483#3 496751483#4 496751483#5 496751483#6 496751484#3 496751486#0 496751486#1 496751486#2 496751486#3 496751486#4"/>
    </vehicle>
    <vehicle id="10" depart="600.00">
        <route edges="-817330123#5 -612320757#2 -612320757#0 -1106519672#9 -1106519672#8 -1106519672#7 -1106519672#6 -1106519672#5 -1106519672#4 1155725053 -817330123#16 -817330123#15 -817330123#14 -817330123#13 -817330123#12 -817330123#11 -817330123#10 203978755#0 203978755#1 203978755#3 203978755#4 203978755#5 203978755#6 203978755#7 1297892393 1297874859#5 1297874859#6 1297874859#7 1297874859#8 1297874859#1 1297874860#0 1297874860#1 1297874860#2 1297874860#3 1297874860#4 1297874860#5 1297874860#6 1297874865#1 1297874863 -496961569#4 496961554#0 -1106771539#1"/>
    </vehicle>
    <vehicle id="11" depart="660.00">
        <route edges="1106784827#2 1298074463 449594982#1 1298074457 1106784827#4 1106784827#5 1106784827#6 1106784827#7 -1297874862#8 -1297874862#7 -1297874862#6 -1297874862#5 -1297874862#4 -1297874862#3 -1297874862#2 -1297874862#1 -1297874862#0 1297892396 1297874859#1 1297874859#2 1297874859#3 1297892394 -203978755#7 -203978755#6 -203978755#5 -203978755#4 -203978755#3 -203978755#1 -203978755#0 817330123#10 817330123#11 817330123#12 817330123#13 817330123#14 817330123#15 817330123#16 -1155725053 1106519672#4"/>
    </vehicle>
    <vehicle id="12" depart="720.00">
        <route edges="-817330123#12 -817330123#11 -817330123#10 -817330123#9 -817330123#8 -817330123#7 -817330123#6 -817330123#5 -612320757#2 -612320757#0 -1106519672#9 -1106519672#8 -1106519672#7 -1106519672#6 -1106519672#5 -1106519672#4 -1106519672#3 -1106519672#2 -1106519672#1 -1106519672#0 635012987 72894438#4-AddedOnRampEdge 72894438#4 72894438#5"/>
    </vehicle>
    <vehicle id="13" depart="780.00">
        <route edges="685746792#1 685746792#2 685746792#3 685746790#2 685746790#3 1106537253 1106537255 1106537262 496751485#5 496751485#6 496751485#7 496751485#8 496751485#9 496751485#10 1297874859#7 1297874859#8 1297874859#1 1297874860#0 1297874860#1 1297874860#2 1297874860#3 1297874860#4 1297874860#5 1297874860#6 1297874865#1 1297874863 -496961569#4 -496961569#3 -496961569#2 -496961569#1 -496961569#0 1106784827#2 1106784827#3"/>
    </vehicle>
    <vehicle id="14" depart="840.00">
        <route edges="449594982#0 449594982#1 1298074457 1106784827#4 1106784827#5 1106784827#6 1106784827#7 -1297874862#8 -1297874862#7 -1297874862#6 -1297874862#5 -1297874862#4 -1297874862#3 -1297874862#2 -1297874862#1 -1297874862#0 1297892396 1297874859#1 1297874859#2 1297874859#3 1297892394 -203978755#7 -203978755#6 -203978755#5 -203978755#4 -203978755#3 -203978755#1 -203978755#0 817330123#10 817330123#11 817330123#12 817330123#13 817330123#14 817330123#15 817330123#16 817330123#17 1155725052#0 1201361495"/>
    </vehicle>
    <vehicle id="15" depart="900.00">
        <route edges="685749017#6 685749017#7 685749017#8 685749017#9 685749017#10 685749017#11 685749017#12 1298074417 274218101#11 1106800100 1298074421"/>
    </vehicle>
    <vehicle id="16" depart="960.00">
        <route edges="274218101#0 274218101#1 1001376209 1001376208 274218101#3 1298074416 685749017#5 685749017#6 685749017#7 685749017#8 685749017#9 685749017#10 685749017#11 685749017#12 685749017#13 685749017#14"/>
    </vehicle>
    <vehicle id="17" depart="1020.00">
        <route edges="1297874860#0 1297874860#1 1297874860#2 1297874860#3 1297874860#4 1297874860#5 1297874860#6 1297874865#1 1297874865#2 1297874865#3 1297874865#4 1297874865#5 496751482#0 496751482#1 496751482#2 496751482#3 496751482#4 496751482#5 496751482#6 1297874859#3 1297892394 -203978755#7 -203978755#6 -203978755#5 -203978755#4 -203978755#3 -203978755#1 -203978755#0 817330123#10 817330123#11 817330123#12 817330123#13 817330123#14 817330123#15 817330123#16 817330123#17 1201361496 1106519672#2 1106519672#3 1155725053 -817330123#16 -817330123#15"/>
    </vehicle>
    <vehicle id="18" depart="1080.00">
        <route edges="993855422 72894438#6-AddedOnRampEdge 72894438#6 203978764 1106519672#9 612320757#0 612320757#2 817330123#5 817330123#6 817330123#7 817330123#8 817330123#9 203978755#0 203978755#1 203978755#3 203978755#4 203978755#5 203978755#6 203978755#7 1297892393 1297874859#5 1297874859#6 1297874859#7 1297892395 1297874862#0 1297874862#1 1297874862#2 1297874862#3 1297874862#4 1297874862#5 1297874862#6 1297874862#7 1297874862#8 1106784827#8 1106784827#9 1106784827#10 1106784827#11 1106784827#12 1106784827#13 1106784827#14 203975000#2"/>
    </vehicle>
    <vehicle id="19" depart="1140.00">
        <route edges="993855422 72894438#6-AddedOnRampEdge 72894438#6 203978764 1106519672#9 612320757#0 612320757#2 817330123#5 817330123#6 817330123#7 817330123#8 817330123#9 203978755#0"/>
    </vehicle>
    <vehicle id="20" depart="1200.00">
        <route edges="-1106519672#12 -1106519672#11 -1106519672#10 612320757#0 612320757#2 817330123#5 817330123#6 817330123#7 817330123#8 817330123#9 203978755#0 203978755#1 203978755#3 203978755#4 203978755#5 203978755#6 203978755#7 1297892393 1297874859#5 1297874859#6 1297874859#7 1297874859#8 1297874859#1 1297874860#0 1297874860#1 1297874860#2 1297874860#3 1297874860#4 1297874860#5 1297874860#6 1297874865#1 1297874865#2 1297874865#3 1297874865#4 1297874865#5 496751482#0 496751482#1 496751482#2"/>
    </vehicle>
    <vehicle id="21" depart="1260.00">
        <route edges="449594982#8 1298074465 1106784827#12 1106784827#13 1106784827#14 203975000#2 203975000#3 203975000#4 203975000#5 203975000#6 203975000#7 496751484#1 496751484#2 496751484#3 496751486#0 496751486#1 496751486#2 496751486#3 496751486#4 496751480#1 496751480#2 496751480#3 1106519672#0 -1201361495 -1155725052#0 -817330123#17 -817330123#16 -817330123#15 -817330123#14 -817330123#13 -817330123#12 -817330123#11 -817330123#10 203978755#0 203978755#1 203978755#3 203978755#4 203978755#5"/>
    </vehicle>
    <vehicle id="22" depart="1320.00">
        <route edges="685746792#1 685746792#2 685746792#3 -685746790#1 -685746790#0 1106537257 203975000#6 203975000#7 496751484#1 496751484#2 496751484#3 496751486#0 496751486#1 496751486#2 496751486#3 496751486#4 496751480#1 496751480#2 496751480#3 1106519672#0 1106519672#1 1106519672#2"/>
    </vehicle>
    <vehicle id="23" depart="1380.00">
        <route edges="496751485#9 496751485#10 1297874859#7 1297874859#8 1297874859#1 1297874859#2 1297874859#3 1297892394 -203978755#7 -203978755#6 -203978755#5 -203978755#4 -203978755#3 -203978755#1 -203978755#0 817330123#10 817330123#11 817330123#12 817330123#13 817330123#14 817330123#15 817330123#16 817330123#17 1201361496 1106519672#2 1106519672#3 1155725053 -817330123#16 -817330123#15 -817330123#14 -817330123#13 -817330123#12 -817330123#11 -817330123#10 203978755#0 203978755#1 203978755#3 203978755#4 203978755#5 203978755#6"/>
    </vehicle>
    <vehicle id="24" depart="1440.00">
        <route edges="685746792#2 685746792#3 685746790#2 685746790#3 1106537253 1106537255 1106537262 496751485#5 496751485#6 496751485#7 496751485#8 496751485#9 496751485#10 1297874859#7 1297874859#8 1297874859#1 1297874860#0 1297874860#1 1297874860#2 1297874860#3 1297874860#4 1297874860#5 1297874860#6 1297874865#1 1297874863 -496961569#4 496961554#0 496961554#1 496961554#2 496961554#3 496961554#4"/>
    </vehicle>
    <vehicle id="25" depart="1500.00">
        <route edges="1106784827#11 1106784827#12 1106784827#13 1106784827#14 203975000#2 203975000#3 203975000#4 203975000#5 203975000#6 203975000#7 496751484#1 496751484#2 496751484#3 496751486#0 496751486#1 496751486#2 496751486#3 496751486#4 496751480#1 496751480#2 496751480#3 1106519672#0 -1201361495"/>
    </vehicle>
    <vehicle id="26" depart="1560.00">
        <route edges="685746792#2 685746792#3 -685746790#1 -685746790#0 1106537257 203975000#6 203975000#7 496751484#1 496751484#2 496751484#3 496751486#0 496751486#1 496751486#2 496751486#3 496751486#4 496751480#1 496751480#2 1416754126 72894438#3 72894438#4-AddedOnRampEdge 72894438#4 72894438#5 72894438#6-AddedOnRampEdge"/>
    </vehicle>
    <vehicle id="27" depart="1620.00">
        <route edges="-1297874862#2 -1297874862#1 -1297874862#0 1297892396 1297874859#1 1297874859#2 1297874859#3 1297874859#4 1297874859#5 496751483#0 496751483#1 496751483#2 496751483#3 496751483#4 496751483#5 496751483#6 496751484#3 496751484#4 496751484#5 496751484#6 496751484#7 496751484#0 496751484#1 496751485#0 496751485#1 496751485#2 496751485#3 496751485#4 496751485#5 496751485#6"/>
    </vehicle>
    <vehicle id="28" depart="1680.00">
        <route edges="1106519672#3 1155725053 -817330123#16 -817330123#15 -817330123#14 -817330123#13 -817330123#12 -817330123#11 -817330123#10 203978755#0 203978755#1 203978755#3 203978755#4 203978755#5 203978755#6 203978755#7 1297892393 1297874859#5 1297874859#6 1297874859#7 1297892395 1297874862#0 1297874862#1 1297874862#2 1297874862#3 1297874862#4 1297874862#5 1297874862#6 1297874862#7 1297874862#8 1106784827#8 1106784827#9 1106784827#10 1106784827#11 1106784827#12 1106784827#13 1106784827#14 203975000#2 203975000#3 203975000#4 685746790#0 685746790#1"/>
    </vehicle>
    <vehicle id="29" depart="1740.00">
        <route edges="1297874862#4 1297874862#5 1297874862#6 1297874862#7 1297874862#8 1106784827#8 1106784827#9 1106784827#10 1106784827#11 1106784827#12 1106784827#13 1106784827#14 203975000#2 203975000#3 203975000#4 203975000#5 203975000#6 203975000#7 496751484#1 496751484#2 496751484#3 496751486#0 496751486#1 496751486#2 496751486#3 496751486#4 496751480#1 496751480#2 496751480#3 1106519672#0 -1201361495 -1155725052#0 -817330123#17 -817330123#16 -817330123#15 -817330123#14 -817330123#13 -817330123#12"/>
    </vehicle>
    <vehicle id="30" depart="1800.00">
        <route edges="-685746792#2 -685746792#1 -685746792#0 1106537259 496751485#2 496751485#3 496751485#4 496751485#5 496751485#6 496751485#7 496751485#8 496751485#9 496751485#10 1297874859#7 1297892395 1297874862#0 1297874862#1 1297874862#2 1297874862#3 1297874862#4 1297874862#5 1297874862#6 1297874862#7 1297874862#8 1106784827#8 1106784827#9 1106784827#10 1106784827#11 1106784827#12 1106784827#13 1106784827#14"/>
    </vehicle>
    <vehicle id="31" depart="1860.00">
        <route edges="1297892393 1297874859#5 1297874859#6 1297874859#7 1297892395 1297874862#0 1297874862#1 1297874862#2 1297874862#3 1297874862#4 1297874862#5 1297874862#6 1297874862#7 1297874862#8 1106784827#8 1106784827#9 1106784827#10 1106784827#11 1106784827#12 1106784827#13 1106784827#14 203975000#2 203975000#3 203975000#4 203975000#5"/>
    </vehicle>
    <vehicle id="32" depart="1920.00">
        <route edges="-817330123#6 -817330123#5 -612320757#2 -612320757#0 -1106519672#9 -1106519672#8 -1106519672#7 -1106519672#6 -1106519672#5 -1106519672#4 1155725053 -817330123#16"/>
    </vehicle>
    <vehicle id="33" depart="1980.00">
        <route edges="635012988 496751479#0 496751479#1 496751479#2 496751479#3 496751484#5 496751484#6 496751484#7 496751484#0 496751484#1 496751485#0 496751485#1 496751485#2 496751485#3 496751485#4 496751485#5 496751485#6 496751485#7 496751485#8 496751485#9 496751485#10 1297874859#7 1297874859#8 1297874859#1 1297874860#0 1297874860#1 1297874860#2 1297874860#3 1297874860#4 1297874860#5 1297874860#6 1297874865#1 1297874863 -496961569#4 -496961569#3 -496961569#2 -496961569#1 -496961569#0 1106784827#2 1298074463 449594982#1 1298074457 1106784827#4 1106784827#5 1106784827#6 1106784827#7 -1297874862#8 -1297874862#7 -1297874862#6 -1297874862#5 -1297874862#4"/>
    </vehicle>
    <vehicle id="34" depart="2040.00">
        <route edges="-203978755#7 -203978755#6 -203978755#5 -203978755#4 -203978755#3 -203978755#1 -203978755#0 817330123#10 817330123#11 817330123#12 817330123#13 817330123#14 817330123#15 817330123#16 817330123#17 1201361496 1106519672#2 1106519672#3 1155725053 -817330123#16 -817330123#15 -817330123#14 -817330123#13 -817330123#12 -817330123#11 -817330123#10 203978755#0 203978755#1 203978755#3 203978755#4 203978755#5 203978755#6 203978755#7 1297892393 1297874859#5 1297874859#6 1297874859#7 1297892395 1297874862#0 1297874862#1 1297874862#2 1297874862#3 1297874862#4 1297874862#5 1297874862#6 1297874862#7 1297874862#8"/>
    </vehicle>
    <vehicle id="35" depart="2100.00">
        <route edges="1297874862#4 1297874862#5 1297874862#6 1297874862#7 1297874862#8 1106784827#8 1106784827#9 1106784827#10 1106784827#11 1106784827#12 1106784827#13 1106784827#14 203975000#2 203975000#3 203975000#4 203975000#5 203975000#6 203975000#7 496751484#1 496751485#0 496751485#1 496751485#2 496751485#3 496751485#4 496751485#5 496751485#6 496751485#7 496751485#8 496751485#9 496751485#10 1297874859#7 1297874859#8 1297874859#1 1297874860#0 1297874860#1 1297874860#2 1297874860#3 1297874860#4 1297874860#5 1297874860#6 1297874865#1 1297874863 -496961569#4 -496961569#3 -496961569#2 -496961569#1 -496961569#0 1106784827#2 1298074463 449594982#1 1298074457"/>
    </vehicle>
    <vehicle id="36" depart="2160.00">
        <route edges="496751483#1 496751483#2 496751483#3 496751483#4 496751483#5 496751483#6 496751484#3 496751484#4 496751484#5 496751484#6 496751484#7 496751484#0 496751484#1 496751485#0 496751485#1 496751485#2 496751485#3 496751485#4 496751485#5 496751485#6 496751485#7 496751485#8 496751485#9 496751485#10 1297874859#7 1297874859#8 1297874859#1 1297874860#0 1297874860#1 1297874860#2 1297874860#3 1297874860#4 1297874860#5 1297874860#6 1297874865#1 1297874863 -496961569#4 -496961569#3 -496961569#2 -496961569#1 -496961569#0 1106784827#2 1298074463 449594982#1 1298074457 1106784827#4 1298074464 449594982#3-AddedOnRampEdge 449594982#3 449594982#4 449594982#4-AddedOffRampEdge 449594982#5"/>
    </vehicle>
    <vehicle id="37" depart="2220.00">
        <route edges="1297874862#4 1297874862#5 1297874862#6 1297874862#7 1297874862#8 1106784827#8 1106784827#9 1106784827#10 1106784827#11 1106784827#12 1106784827#13 1106784827#14 203975000#2 203975000#3 203975000#4 203975000#5 203975000#6 203975000#7 496751484#1 496751484#2 496751484#3 496751486#0 496751486#1 496751486#2 496751486#3 496751486#4 496751480#1 496751480#2 496751480#3 1106519672#0 1106519672#1 1106519672#2 1106519672#3 1106519672#4 1106519672#5 1106519672#6 1106519672#7 1106519672#8 1106519672#9"/>
    </vehicle>
    <vehicle id="38" depart="2280.00">
        <route edges="1105504481 274218101#7 685749031 685749017#8"/>
    </vehicle>
    <vehicle id="39" depart="2340.00">
        <route edges="993855423 1106519672#3 1155725053 -817330123#16 -817330123#15 -817330123#14 -817330123#13 -817330123#12 -817330123#11 -817330123#10 203978755#0 203978755#1 203978755#3 203978755#4 203978755#5 203978755#6 203978755#7 1297892393 1297874859#5 1297874859#6 1297874859#7 1297874859#8 1297874859#1 1297874860#0 1297874860#1 1297874860#2 1297874860#3 1297874860#4 1297874860#5 1297874860#6 1297874865#1 1297874863 -496961569#4 496961554#0 496961554#1 496961554#2 496961554#3 496961555"/>
    </vehicle>
    <vehicle id="40" depart="2400.00">
        <route edges="1416754126 72894438#3 72894438#4-AddedOnRampEdge 72894438#4 993855423 1106519672#3 1155725053 -817330123#16 -817330123#15 -817330123#14 -817330123#13 -817330123#12"/>
    </vehicle>
    <vehicle id="41" depart="2460.00">
        <route edges="1297874860#1 1297874860#2 1297874860#3 1297874860#4 1297874860#5 1297874860#6 1297874865#1 1297874865#2 1297874865#3 1297874865#4 1297874865#5 496751482#0 496751482#1 496751482#2 496751482#3 496751482#4 496751482#5 496751482#6 1297874859#3 1297892394 -203978755#7 -203978755#6 -203978755#5 -203978755#4 -203978755#3 -203978755#1 -203978755#0 817330123#10 817330123#11 817330123#12 817330123#13 817330123#14 817330123#15 817330123#16 817330123#17 1201361496 -1106519672#1 -1201361495"/>
    </vehicle>
    <vehicle id="42" depart="2520.00">
        <route edges="-496961554#2 496961553 -496961569#2 496961552 496961554#3 496961555 1106771539#1"/>
    </vehicle>
    <vehicle id="43" depart="2580.00">
        <route edges="-496961554#3 -496961554#2 -496961554#1 -496961554#0 496961569#4 1297874864 1297874865#3 1297874865#4 1297874865#5 496751482#0 496751482#1 496751482#2 496751482#3 496751482#4 496751482#5 496751482#6 1297874859#3 1297892394 -203978755#7 -203978755#6 -203978755#5 -203978755#4 -203978755#3 -203978755#1 -203978755#0 817330123#10 817330123#11 817330123#12"/>
    </vehicle>
    <vehicle id="44" depart="2640.00">
        <route edges="274218101#12 274218101#13 1298074419 685749017#18 -1155725059 -203978770#11 -203978762#4 -203978762#3 -203978762#2 -203978762#1 -203978762#0 685749017#8 1298074420 274218101#9-AddedOnRampEdge 274218101#9"/>
    </vehicle>
    <vehicle id="45" depart="2700.00">
        <route edges="-685746792#3 -685746792#2 -685746792#1 -685746792#0 1106537259 496751485#2 496751485#3 496751485#4 496751485#5 496751485#6 496751485#7 496751485#8 496751485#9 496751485#10 1297874859#7 1297874859#8 1297874859#1 1297874860#0 1297874860#1 1297874860#2 1297874860#3 1297874860#4 1297874860#5 1297874860#6 1297874865#1 1297874865#2 1297874865#3 1297874865#4 1297874865#5 496751482#0"/>
    </vehicle>
    <vehicle id="46" depart="2760.00">
        <route edges="449594982#4-AddedOffRampEdge 1106771579 -1297874862#8 -1297874862#7 -1297874862#6 -1297874862#5 -1297874862#4 -1297874862#3 -1297874862#2 -1297874862#1 -1297874862#0 1297892396 1297874859#1 1297874860#0 1297874860#1 1297874860#2 1297874860#3 1297874860#4 1297874860#5 1297874860#6 1297874865#1 1297874863 -496961569#4 496961554#0 496961554#1 496961554#2 496961554#3 496961554#4 496961554#5 1106784827#1"/>
    </vehicle>
    <vehicle id="47" depart="2820.00">
        <route edges="1106784827#2 1298074463 449594982#1 1298074457 1106784827#4 1106784827#5 1106784827#6 1106784827#7 -1297874862#8 -1297874862#7 -1297874862#6 -1297874862#5 -1297874862#4 -1297874862#3 -1297874862#2 -1297874862#1 -1297874862#0 1297892396 1297874859#1 1297874859#2 1297874859#3 1297874859#4 1297874859#5 496751483#0 496751483#1 496751483#2 496751483#3 496751483#4 496751483#5 496751483#6 496751484#3 496751484#4 496751484#5 496751484#6 496751484#7 496751484#0 496751484#1 496751485#0 496751485#1 496751485#2"/>
    </vehicle>
    <vehicle id="48" depart="2880.00">
        <route edges="993855423 1106519672#3 1106519672#4 1106519672#5 993855422"/>
    </vehicle>
    <vehicle id="49" depart="2940.00">
        <route edges="-1297874862#4 -1297874862#3 -1297874862#2 -1297874862#1 -1297874862#0 1297892396 1297874859#1 1297874859#2 1297874859#3 1297892394 -203978755#7 -203978755#6 -203978755#5 -203978755#4 -203978755#3 -203978755#1 -203978755#0 817330123#10 817330123#11 817330123#12 817330123#13 817330123#14 817330123#15 817330123#16 817330123#17 1201361496 1106519672#2 1106519672#3 1155725053 -817330123#16 -817330123#15 -817330123#14 -817330123#13 -817330123#12"/>
    </vehicle>
    <vehicle id="50" depart="3000.00">
        <route edges="685746792#3 -685746790#1 -685746790#0 1106537257 203975000#6 203975000#7 496751484#1 496751485#0 1106537260 685746792#0"/>
    </vehicle>
    <vehicle id="51" depart="3060.00">
        <route edges="496961554#0 496961554#1 496961554#2 496961554#3 496961554#4 496961554#5 1106784827#1 1106784827#2 1298074463 449594982#1 1298074457 1106784827#4 1298074464 449594982#3-AddedOnRampEdge 449594982#3 449594982#4 449594982#4-AddedOffRampEdge 1106771579"/>
    </vehicle>
    <vehicle id="52" depart="3120.00">
        <route edges="449594982#2 449594982#3-AddedOnRampEdge 449594982#3 1298074459 1106784827#7 -1297874862#8 -1297874862#7 -1297874862#6 -1297874862#5 -1297874862#4 -1297874862#3 -1297874862#2 -1297874862#1 -1297874862#0 1297892396 1297874859#1 1297874859#2 1297874859#3 1297874859#4 1297874859#5 496751483#0 496751483#1 496751483#2 496751483#3 496751483#4 496751483#5 496751483#6 496751484#3 496751486#0 496751486#1 496751486#2 496751486#3 496751486#4 496751480#1 496751480#2 1416754126 72894438#3 72894438#4-AddedOnRampEdge 72894438#4"/>
    </vehicle>
    <vehicle id="53" depart="3180.00">
        <route edges="-203978770#9 496948760#0 203978765#1 244662200#1 203978770#8 203978770#9 203978770#10 -203978762#4 -203978762#3 -203978762#2 -203978762#1 -203978762#0 685749017#8 685749017#9 685749017#10 685749017#11 685749017#12 1298074417 274218101#11 1106800100 685749017#15 685749017#16 685749017#17 685749017#18 -1155725059 -203978770#11"/>
    </vehicle>
    <vehicle id="54" depart="3240.00">
        <route edges="496751482#2 496751482#3 496751482#4 496751482#5 496751482#6 1297874859#3 1297892394 -203978755#7 -203978755#6 -203978755#5 -203978755#4 -203978755#3 -203978755#1 -203978755#0 -817330123#9 -817330123#8 -817330123#7 -817330123#6 -817330123#5 -817330123#3 -817330123#2 -817330123#1 -817330123#0"/>
    </vehicle>
    <vehicle id="55" depart="3300.00">
        <route edges="612320757#2 817330123#5 817330123#6 817330123#7 817330123#8 817330123#9 203978755#0 203978755#1 203978755#3 203978755#4 203978755#5 203978755#6 203978755#7 1297892393 1297874859#5 1297874859#6 1297874859#7 1297874859#8 1297874859#1 1297874859#2 1297874859#3 1297892394 -203978755#7"/>
    </vehicle>
    <vehicle id="56" depart="3360.00">
        <route edges="1297874862#4 1297874862#5 1297874862#6 1297874862#7 1297874862#8 1106784827#8 1106784827#9 1106784827#10 1106784827#11 1106784827#12 1106784827#13 1106784827#14 203975000#2 203975000#3 203975000#4 203975000#5 203975000#6 203975000#7 496751484#1 496751484#2 496751484#3 496751486#0 496751486#1 496751486#2 496751486#3 496751486#4 496751480#1 496751480#2 496751480#3 1106519672#0 1106519672#1 1106519672#2 1106519672#3 1106519672#4 1106519672#5 1106519672#6 1106519672#7 1106519672#8"/>
    </vehicle>
    <vehicle id="57" depart="3420.00">
        <route edges="-1106519672#0 635012987 72894438#4-AddedOnRampEdge 72894438#4 993855423 1106519672#3 1155725053 -817330123#16 -817330123#15 -817330123#14 -817330123#13 -817330123#12 -817330123#11 -817330123#10 203978755#0 203978755#1 203978755#3 203978755#4 203978755#5 203978755#6 203978755#7 1297892393 1297874859#5 496751483#0 496751483#1 496751483#2 496751483#3 496751483#4 496751483#5 496751483#6 496751484#3 496751486#0 496751486#1"/>
    </vehicle>
    <vehicle id="58" depart="3480.00">
        <route edges="-1297874862#5 -1297874862#4 -1297874862#3 -1297874862#2 -1297874862#1 -1297874862#0 1297892396 1297874859#1 1297874859#2 1297874859#3 1297874859#4 1297874859#5 496751483#0 496751483#1 496751483#2 496751483#3 496751483#4 496751483#5 496751483#6 496751484#3 496751484#4 496751484#5 496751484#6 496751484#7 496751484#0 496751484#1 496751485#0 1106537260 685746792#0 685746792#1 685746792#2"/>
    </vehicle>
    <vehicle id="59" depart="3540.00">
        <route edges="1105504481 274218101#7 685749031 203978762#0 203978762#1 203978762#2 203978762#3 203978762#4 -203978770#10 -203978770#9 496948760#0 203978765#1 244662200#1 203978770#8 203978770#9 203978770#10 -203978762#4"/>
    </vehicle>
</routes>
